data/pglib_opf_case2312_goc_storage.m
%%%%%%%%%%%%%%%%%%%%%%%%%%%%%%%%%%%%%%%%%%%%%%%%%%%%%%%%%%%%%%%%%%%%%%%%%%%
%%%%                                                                  %%%%%
%%%%    IEEE PES Power Grid Library - Optimal Power Flow - v23.07     %%%%%
%%%%          (https://github.com/power-grid-lib/pglib-opf)           %%%%%
%%%%               Benchmark Group - Typical Operations               %%%%%
%%%%                         23 - July - 2023                         %%%%%
%%%%                                                                  %%%%%
%%%%%%%%%%%%%%%%%%%%%%%%%%%%%%%%%%%%%%%%%%%%%%%%%%%%%%%%%%%%%%%%%%%%%%%%%%%
%
%   A 2,312 bus model created by the Sustainable Data Evolution Technology (SDET)
%   tool for use in ARPA-e's Grid Optimization Competition, Challenge 1.
%
%   https://gocompetition.energy.gov/challenges/22/datasets
%
%   Developed by Renke Huang and Ahmad Tbaileh,
%   Pacific Northwest National Laboratory, U.S.A.
%   Provided in the public domain. February, 2020
%
% Modified to have additional storage capacity and increased gencost
function mpc = pglib_opf_case2312_goc
mpc.version = '2';
mpc.baseMVA = 100.0;

%% bus data
%	bus_i	type	Pd	Qd	Gs	Bs	area	Vm	Va	baseKV	zone	Vmax	Vmin
mpc.bus = [
	1	 1	 0.0	 0.0	 0.0	 0.0	 1	    1.00000	    0.00000	 345.0	 1	    1.10000	    0.90000;
	2	 1	 7.19	 -4.074	 0.0	 -7.133	 1	    1.00000	    0.00000	 345.0	 1	    1.10000	    0.90000;
	3	 1	 1.523	 1.047	 0.0	 0.0	 1	    1.00000	    0.00000	 345.0	 1	    1.10000	    0.90000;
	4	 1	 14.723	 -5.338	 0.0	 -9.601	 1	    1.00000	    0.00000	 345.0	 1	    1.10000	    0.90000;
	5	 1	 0.0	 0.0	 0.0	 0.0	 1	    1.00000	    0.00000	 345.0	 1	    1.10000	    0.90000;
	6	 1	 43.573	 22.627	 0.0	 41.987	 1	    1.00000	    0.00000	 345.0	 1	    1.10000	    0.90000;
	7	 1	 0.0	 0.0	 0.0	 0.0	 1	    1.00000	    0.00000	 345.0	 1	    1.10000	    0.90000;
	8	 1	 0.0	 0.0	 0.0	 0.0	 1	    1.00000	    0.00000	 345.0	 1	    1.10000	    0.90000;
	9	 1	 121.248	 -56.789	 0.0	 0.0	 1	    1.00000	    0.00000	 345.0	 1	    1.10000	    0.90000;
	10	 1	 22.751	 40.005	 0.0	 0.0	 1	    1.00000	    0.00000	 345.0	 1	    1.10000	    0.90000;
	11	 1	 6.855	 4.115	 0.0	 0.0	 1	    1.00000	    0.00000	 138.0	 1	    1.10000	    0.90000;
	12	 1	 11.5	 5.858	 0.0	 0.0	 1	    1.00000	    0.00000	 138.0	 1	    1.10000	    0.90000;
	13	 1	 3.468	 1.364	 0.0	 0.0	 1	    1.00000	    0.00000	 138.0	 1	    1.10000	    0.90000;
	14	 1	 11.202	 4.297	 0.0	 0.0	 1	    1.00000	    0.00000	 138.0	 1	    1.10000	    0.90000;
	15	 1	 0.236	 0.055	 0.0	 0.0	 1	    1.00000	    0.00000	 138.0	 1	    1.10000	    0.90000;
	16	 1	 0.0	 0.0	 0.0	 0.0	 1	    1.00000	    0.00000	 138.0	 1	    1.10000	    0.90000;
	17	 1	 5.852	 2.532	 0.0	 0.0	 1	    1.00000	    0.00000	 138.0	 1	    1.10000	    0.90000;
	18	 1	 1.348	 0.438	 0.0	 0.0	 1	    1.00000	    0.00000	 138.0	 1	    1.10000	    0.90000;
	19	 1	 0.822	 0.274	 0.0	 0.0	 1	    1.00000	    0.00000	 138.0	 1	    1.10000	    0.90000;
	20	 1	 11.256	 -19.5	 0.0	 0.0	 1	    1.00000	    0.00000	 138.0	 1	    1.10000	    0.90000;
	21	 1	 7.984	 1.699	 0.0	 0.0	 1	    1.00000	    0.00000	 138.0	 1	    1.10000	    0.90000;
	22	 1	 0.0	 0.0	 0.0	 0.0	 1	    1.00000	    0.00000	 138.0	 1	    1.10000	    0.90000;
	23	 1	 23.291	 -7.051	 0.0	 0.0	 1	    1.00000	    0.00000	 138.0	 1	    1.10000	    0.90000;
	24	 2	 4.679	 2.751	 0.0	 0.0	 1	    1.00000	    0.00000	 138.0	 1	    1.10000	    0.90000;
	25	 1	 0.0	 -0.219	 0.0	 0.0	 1	    1.00000	    0.00000	 138.0	 1	    1.10000	    0.90000;
	26	 1	 19.403	 6.91	 0.0	 0.0	 1	    1.00000	    0.00000	 138.0	 1	    1.10000	    0.90000;
	27	 1	 2.46	 0.822	 0.0	 0.0	 1	    1.00000	    0.00000	 138.0	 1	    1.10000	    0.90000;
	28	 1	 0.0	 0.0	 0.0	 0.0	 1	    1.00000	    0.00000	 138.0	 1	    1.10000	    0.90000;
	29	 1	 5.211	 2.033	 0.0	 0.0	 1	    1.00000	    0.00000	 138.0	 1	    1.10000	    0.90000;
	30	 1	 0.0	 0.0	 0.0	 0.0	 1	    1.00000	    0.00000	 138.0	 1	    1.10000	    0.90000;
	31	 1	 2.69	 0.937	 0.0	 0.0	 1	    1.00000	    0.00000	 138.0	 1	    1.10000	    0.90000;
	32	 1	 3.863	 1.923	 0.0	 -1.306	 1	    1.00000	    0.00000	 138.0	 1	    1.10000	    0.90000;
	33	 1	 3.863	 2.532	 0.0	 0.0	 1	    1.00000	    0.00000	 138.0	 1	    1.10000	    0.90000;
	34	 1	 0.0	 0.0	 0.0	 0.0	 1	    1.00000	    0.00000	 138.0	 1	    1.10000	    0.90000;
	35	 1	 0.877	 0.274	 0.0	 0.0	 1	    1.00000	    0.00000	 138.0	 1	    1.10000	    0.90000;
	36	 1	 0.0	 0.0	 0.0	 0.0	 1	    1.00000	    0.00000	 138.0	 1	    1.10000	    0.90000;
	37	 1	 0.0	 0.0	 0.0	 0.0	 1	    1.00000	    0.00000	 138.0	 1	    1.10000	    0.90000;
	38	 1	 0.0	 0.0	 0.0	 0.0	 1	    1.00000	    0.00000	 138.0	 1	    1.10000	    0.90000;
	39	 1	 9.298	 -0.002	 0.0	 -0.488	 1	    1.00000	    0.00000	 138.0	 1	    1.10000	    0.90000;
	40	 1	 0.0	 0.0	 0.0	 0.0	 1	    1.00000	    0.00000	 138.0	 1	    1.10000	    0.90000;
	41	 1	 0.937	 0.329	 0.0	 0.0	 1	    1.00000	    0.00000	 138.0	 1	    1.10000	    0.90000;
	42	 1	 3.337	 0.493	 0.0	 0.0	 1	    1.00000	    0.00000	 138.0	 1	    1.10000	    0.90000;
	43	 1	 7.851	 2.115	 0.0	 3.712	 1	    1.00000	    0.00000	 138.0	 1	    1.10000	    0.90000;
	44	 1	 8.683	 4.552	 0.0	 0.0	 1	    1.00000	    0.00000	 138.0	 1	    1.10000	    0.90000;
	45	 1	 2.712	 1.249	 0.0	 0.0	 1	    1.00000	    0.00000	 138.0	 1	    1.10000	    0.90000;
	46	 2	 20.377	 8.551	 0.0	 0.0	 1	    1.00000	    0.00000	 138.0	 1	    1.10000	    0.90000;
	47	 1	 6.416	 2.296	 0.0	 0.0	 1	    1.00000	    0.00000	 138.0	 1	    1.10000	    0.90000;
	48	 1	 0.0	 0.082	 0.0	 0.0	 1	    1.00000	    0.00000	 138.0	 1	    1.10000	    0.90000;
	49	 1	 22.697	 0.068	 0.0	 -4.149	 1	    1.00000	    0.00000	 138.0	 1	    1.10000	    0.90000;
	50	 1	 0.0	 0.0	 0.0	 0.0	 1	    1.00000	    0.00000	 138.0	 1	    1.10000	    0.90000;
	51	 1	 0.0	 0.0	 0.0	 0.0	 1	    1.00000	    0.00000	 138.0	 1	    1.10000	    0.90000;
	52	 1	 10.186	 3.244	 0.0	 0.0	 1	    1.00000	    0.00000	 138.0	 1	    1.10000	    0.90000;
	53	 1	 4.34	 1.764	 0.0	 -61.98	 1	    1.00000	    0.00000	 138.0	 1	    1.10000	    0.90000;
	54	 1	 2.11	 1.156	 0.0	 0.0	 1	    1.00000	    0.00000	 138.0	 1	    1.10000	    0.90000;
	55	 1	 0.175	 0.0	 0.0	 0.0	 1	    1.00000	    0.00000	 138.0	 1	    1.10000	    0.90000;
	56	 1	 3.874	 1.436	 0.0	 0.0	 1	    1.00000	    0.00000	 138.0	 1	    1.10000	    0.90000;
	57	 1	 2.285	 0.816	 0.0	 0.0	 1	    1.00000	    0.00000	 138.0	 1	    1.10000	    0.90000;
	58	 1	 27.316	 -3.219	 0.0	 0.0	 1	    1.00000	    0.00000	 138.0	 1	    1.10000	    0.90000;
	59	 1	 3.633	 1.222	 0.0	 0.0	 1	    1.00000	    0.00000	 138.0	 1	    1.10000	    0.90000;
	60	 1	 0.822	 0.219	 0.0	 0.0	 1	    1.00000	    0.00000	 138.0	 1	    1.10000	    0.90000;
	61	 1	 4.92	 13.296	 0.0	 0.0	 1	    1.00000	    0.00000	 138.0	 1	    1.10000	    0.90000;
	62	 1	 0.0	 0.0	 0.0	 0.0	 1	    1.00000	    0.00000	 138.0	 1	    1.10000	    0.90000;
	63	 1	 2.575	 0.849	 0.0	 0.0	 1	    1.00000	    0.00000	 138.0	 1	    1.10000	    0.90000;
	64	 1	 1.288	 0.438	 0.0	 0.0	 1	    1.00000	    0.00000	 138.0	 1	    1.10000	    0.90000;
	65	 1	 1.173	 0.384	 0.0	 0.0	 1	    1.00000	    0.00000	 138.0	 1	    1.10000	    0.90000;
	66	 1	 4.049	 1.496	 0.0	 0.0	 1	    1.00000	    0.00000	 138.0	 1	    1.10000	    0.90000;
	67	 1	 5.288	 2.044	 0.0	 3.708	 1	    1.00000	    0.00000	 138.0	 1	    1.10000	    0.90000;
	68	 2	 9.425	 18.526	 0.0	 0.0	 1	    1.00000	    0.00000	 138.0	 1	    1.10000	    0.90000;
	69	 1	 0.0	 0.0	 0.0	 0.0	 1	    1.00000	    0.00000	 138.0	 1	    1.10000	    0.90000;
	70	 1	 13.699	 3.836	 0.0	 0.0	 1	    1.00000	    0.00000	 138.0	 1	    1.10000	    0.90000;
	71	 1	 0.0	 0.0	 0.0	 0.0	 1	    1.00000	    0.00000	 345.0	 2	    1.10000	    0.90000;
	72	 1	 0.0	 0.0	 0.0	 0.0	 1	    1.00000	    0.00000	 345.0	 2	    1.10000	    0.90000;
	73	 1	 0.0	 0.0	 0.0	 0.0	 1	    1.00000	    0.00000	 345.0	 2	    1.10000	    0.90000;
	74	 1	 0.0	 0.0	 0.0	 0.0	 1	    1.00000	    0.00000	 345.0	 2	    1.10000	    0.90000;
	75	 1	 6.575	 16.438	 0.0	 0.0	 1	    1.00000	    0.00000	 345.0	 2	    1.10000	    0.90000;
	76	 2	 10.91	 20.038	 0.0	 0.0	 1	    1.00000	    0.00000	 345.0	 2	    1.10000	    0.90000;
	77	 2	 6.575	 16.438	 0.0	 0.0	 1	    1.00000	    0.00000	 500.0	 2	    1.10000	    0.90000;
	78	 2	 0.0	 0.0	 0.0	 6.23030263671	 1	    1.00000	    0.00000	 345.0	 2	    1.10000	    0.90000;
	79	 1	 0.0	 0.0	 0.0	 0.0	 1	    1.00000	    0.00000	 345.0	 2	    1.10000	    0.90000;
	80	 1	 0.0	 0.0	 0.0	 0.0	 1	    1.00000	    0.00000	 345.0	 2	    1.10000	    0.90000;
	81	 1	 0.0	 0.0	 0.0	 0.0	 1	    1.00000	    0.00000	 345.0	 2	    1.10000	    0.90000;
	82	 1	 0.0	 0.0	 0.0	 0.0	 1	    1.00000	    0.00000	 345.0	 2	    1.10000	    0.90000;
	83	 1	 6.274	 1.447	 0.0	 0.0	 1	    1.00000	    0.00000	 138.0	 2	    1.10000	    0.90000;
	84	 1	 14.197	 3.518	 0.0	 0.0	 1	    1.00000	    0.00000	 138.0	 2	    1.10000	    0.90000;
	85	 1	 0.0	 0.0	 0.0	 0.0	 1	    1.00000	    0.00000	 138.0	 2	    1.10000	    0.90000;
	86	 1	 8.605	 4.785	 0.0	 6.325	 1	    1.00000	    0.00000	 138.0	 2	    1.10000	    0.90000;
	87	 1	 1.655	 0.696	 0.0	 0.0	 1	    1.00000	    0.00000	 138.0	 2	    1.10000	    0.90000;
	88	 1	 3.633	 0.351	 0.0	 0.0	 1	    1.00000	    0.00000	 138.0	 2	    1.10000	    0.90000;
	89	 1	 6.844	 2.658	 0.0	 0.0	 1	    1.00000	    0.00000	 138.0	 2	    1.10000	    0.90000;
	90	 1	 1.989	 0.29	 0.0	 -0.019	 1	    1.00000	    0.00000	 138.0	 2	    1.10000	    0.90000;
	91	 1	 1.94	 0.636	 0.0	 0.0	 1	    1.00000	    0.00000	 138.0	 2	    1.10000	    0.90000;
	92	 1	 10.532	 18.027	 0.0	 0.0	 1	    1.00000	    0.00000	 138.0	 2	    1.10000	    0.90000;
	93	 1	 0.0	 0.0	 0.0	 0.0	 1	    1.00000	    0.00000	 138.0	 2	    1.10000	    0.90000;
	94	 1	 1.255	 0.46	 0.0	 0.0	 1	    1.00000	    0.00000	 138.0	 2	    1.10000	    0.90000;
	95	 1	 2.57	 1.047	 0.0	 7.99995490307	 1	    1.00000	    0.00000	 138.0	 2	    1.10000	    0.90000;
	96	 1	 0.055	 -0.433	 0.0	 0.0	 1	    1.00000	    0.00000	 138.0	 2	    1.10000	    0.90000;
	97	 1	 3.055	 1.078	 0.0	 0.0	 1	    1.00000	    0.00000	 138.0	 2	    1.10000	    0.90000;
	98	 2	 11.087	 13.984	 0.0	 0.0	 1	    1.00000	    0.00000	 138.0	 2	    1.10000	    0.90000;
	99	 2	 6.885	 5.08	 0.0	 0.0	 1	    1.00000	    0.00000	 138.0	 2	    1.10000	    0.90000;
	100	 1	 7.074	 2.597	 0.0	 0.0	 1	    1.00000	    0.00000	 138.0	 2	    1.10000	    0.90000;
	101	 1	 5.134	 2.077	 0.0	 0.0	 1	    1.00000	    0.00000	 138.0	 2	    1.10000	    0.90000;
	102	 1	 7.759	 3.118	 0.0	 0.0	 1	    1.00000	    0.00000	 138.0	 2	    1.10000	    0.90000;
	103	 1	 6.247	 2.049	 0.0	 0.0	 1	    1.00000	    0.00000	 138.0	 2	    1.10000	    0.90000;
	104	 1	 5.704	 2.082	 0.0	 -1.48527940582e-05	 1	    1.00000	    0.00000	 138.0	 2	    1.10000	    0.90000;
	105	 1	 0.0	 0.0	 0.0	 0.0	 1	    1.00000	    0.00000	 138.0	 2	    1.10000	    0.90000;
	106	 1	 0.0	 0.0	 0.0	 0.0	 1	    1.00000	    0.00000	 138.0	 2	    1.10000	    0.90000;
	107	 1	 3.008	 0.351	 0.0	 0.0	 1	    1.00000	    0.00000	 138.0	 2	    1.10000	    0.90000;
	108	 1	 3.764	 1.096	 0.0	 0.0	 1	    1.00000	    0.00000	 138.0	 2	    1.10000	    0.90000;
	109	 1	 3.079	 1.271	 0.0	 0.0	 1	    1.00000	    0.00000	 138.0	 2	    1.10000	    0.90000;
	110	 1	 2.279	 0.926	 0.0	 0.0	 1	    1.00000	    0.00000	 138.0	 2	    1.10000	    0.90000;
	111	 1	 0.8	 0.29	 0.0	 0.0	 1	    1.00000	    0.00000	 138.0	 2	    1.10000	    0.90000;
	112	 1	 0.981	 0.416	 0.0	 0.0	 1	    1.00000	    0.00000	 138.0	 2	    1.10000	    0.90000;
	113	 1	 0.915	 0.405	 0.0	 0.0	 1	    1.00000	    0.00000	 138.0	 2	    1.10000	    0.90000;
	114	 1	 1.704	 0.471	 0.0	 0.0	 1	    1.00000	    0.00000	 138.0	 2	    1.10000	    0.90000;
	115	 1	 2.614	 0.296	 0.0	 0.0	 1	    1.00000	    0.00000	 138.0	 2	    1.10000	    0.90000;
	116	 1	 3.879	 0.981	 0.0	 0.0	 1	    1.00000	    0.00000	 138.0	 2	    1.10000	    0.90000;
	117	 1	 6.274	 2.542	 0.0	 3.51187827085	 1	    1.00000	    0.00000	 138.0	 2	    1.10000	    0.90000;
	118	 1	 4.619	 1.847	 0.0	 0.0	 1	    1.00000	    0.00000	 138.0	 2	    1.10000	    0.90000;
	119	 1	 3.71	 -0.932	 0.0	 0.0	 1	    1.00000	    0.00000	 138.0	 2	    1.10000	    0.90000;
	120	 2	 11.984	 6.937	 0.0	 0.0	 1	    1.00000	    0.00000	 138.0	 2	    1.10000	    0.90000;
	121	 1	 13.688	 12.707	 0.0	 0.0	 1	    1.00000	    0.00000	 138.0	 2	    1.10000	    0.90000;
	122	 1	 7.984	 2.312	 0.0	 0.0	 1	    1.00000	    0.00000	 138.0	 2	    1.10000	    0.90000;
	123	 1	 8.838	 2.597	 0.0	 0.0	 1	    1.00000	    0.00000	 138.0	 2	    1.10000	    0.90000;
	124	 1	 2.926	 0.97	 0.0	 0.0	 1	    1.00000	    0.00000	 138.0	 2	    1.10000	    0.90000;
	125	 1	 3.107	 3.2	 0.0	 0.0	 1	    1.00000	    0.00000	 138.0	 2	    1.10000	    0.90000;
	126	 1	 4.219	 1.732	 0.0	 0.0	 1	    1.00000	    0.00000	 138.0	 2	    1.10000	    0.90000;
	127	 1	 0.0	 0.0	 0.0	 0.0	 1	    1.00000	    0.00000	 138.0	 2	    1.10000	    0.90000;
	128	 1	 4.055	 1.392	 0.0	 0.0	 1	    1.00000	    0.00000	 138.0	 2	    1.10000	    0.90000;
	129	 1	 0.658	 0.258	 0.0	 0.0	 1	    1.00000	    0.00000	 138.0	 2	    1.10000	    0.90000;
	130	 1	 3.134	 1.271	 0.0	 0.0	 1	    1.00000	    0.00000	 138.0	 2	    1.10000	    0.90000;
	131	 1	 3.195	 1.271	 0.0	 0.0	 1	    1.00000	    0.00000	 138.0	 2	    1.10000	    0.90000;
	132	 1	 3.425	 0.953	 0.0	 0.0	 1	    1.00000	    0.00000	 138.0	 2	    1.10000	    0.90000;
	133	 1	 3.425	 0.953	 0.0	 0.0	 1	    1.00000	    0.00000	 138.0	 2	    1.10000	    0.90000;
	134	 1	 0.345	 0.115	 0.0	 0.0	 1	    1.00000	    0.00000	 138.0	 2	    1.10000	    0.90000;
	135	 2	 7.195	 2.893	 0.0	 0.0	 1	    1.00000	    0.00000	 138.0	 2	    1.10000	    0.90000;
	136	 1	 5.134	 1.978	 0.0	 0.0	 1	    1.00000	    0.00000	 138.0	 2	    1.10000	    0.90000;
	137	 1	 2.564	 1.041	 0.0	 0.0	 1	    1.00000	    0.00000	 138.0	 2	    1.10000	    0.90000;
	138	 1	 3.54	 1.392	 0.0	 4.1998700159	 1	    1.00000	    0.00000	 138.0	 2	    1.10000	    0.90000;
	139	 1	 11.923	 3.342	 0.0	 0.0	 1	    1.00000	    0.00000	 138.0	 2	    1.10000	    0.90000;
	140	 1	 1.14	 0.46	 0.0	 0.0	 1	    1.00000	    0.00000	 138.0	 2	    1.10000	    0.90000;
	141	 1	 1.485	 0.575	 0.0	 0.0	 1	    1.00000	    0.00000	 138.0	 2	    1.10000	    0.90000;
	142	 1	 2.225	 0.29	 0.0	 0.0	 1	    1.00000	    0.00000	 138.0	 2	    1.10000	    0.90000;
	143	 1	 0.0	 0.0	 0.0	 0.0	 1	    1.00000	    0.00000	 138.0	 2	    1.10000	    0.90000;
	144	 1	 0.0	 0.0	 0.0	 0.0	 1	    1.00000	    0.00000	 138.0	 2	    1.10000	    0.90000;
	145	 1	 0.0	 0.0	 0.0	 0.0	 1	    1.00000	    0.00000	 138.0	 2	    1.10000	    0.90000;
	146	 1	 4.619	 1.677	 0.0	 0.0	 1	    1.00000	    0.00000	 138.0	 2	    1.10000	    0.90000;
	147	 1	 2.055	 0.46	 0.0	 0.0	 1	    1.00000	    0.00000	 138.0	 2	    1.10000	    0.90000;
	148	 1	 15.458	 5.66	 0.0	 0.0	 1	    1.00000	    0.00000	 138.0	 2	    1.10000	    0.90000;
	149	 1	 0.855	 0.345	 0.0	 0.0	 1	    1.00000	    0.00000	 138.0	 2	    1.10000	    0.90000;
	150	 2	 347.397	 0.0	 0.0	 0.0	 1	    1.00000	    0.00000	 345.0	 2	    1.10000	    0.90000;
	151	 1	 44.658	 47.066	 0.0	 0.0	 1	    1.00000	    0.00000	 345.0	 3	    1.10000	    0.90000;
	152	 1	 0.0	 0.0	 0.0	 0.0	 1	    1.00000	    0.00000	 500.0	 3	    1.10000	    0.90000;
	153	 1	 0.0	 0.0	 0.0	 -11.354	 1	    1.00000	    0.00000	 500.0	 3	    1.10000	    0.90000;
	154	 1	 0.0	 0.0	 0.0	 0.0	 1	    1.00000	    0.00000	 500.0	 3	    1.10000	    0.90000;
	155	 1	 0.0	 0.0	 0.0	 0.0	 1	    1.00000	    0.00000	 500.0	 3	    1.10000	    0.90000;
	156	 1	 84.714	 39.301	 0.0	 75.294	 1	    1.00000	    0.00000	 500.0	 3	    1.10000	    0.90000;
	157	 1	 0.0	 0.0	 0.0	 -27.072	 1	    1.00000	    0.00000	 345.0	 3	    1.10000	    0.90000;
	158	 1	 0.0	 0.0	 0.0	 -322.112	 1	    1.00000	    0.00000	 500.0	 3	    1.10000	    0.90000;
	159	 1	 0.0	 0.0	 0.0	 0.0	 1	    1.00000	    0.00000	 500.0	 3	    1.10000	    0.90000;
	160	 1	 0.0	 0.0	 0.0	 0.0	 1	    1.00000	    0.00000	 500.0	 3	    1.10000	    0.90000;
	161	 1	 0.0	 0.0	 0.0	 -124.239	 1	    1.00000	    0.00000	 500.0	 3	    1.10000	    0.90000;
	162	 1	 19.021	 32.965	 0.0	 0.0	 1	    1.00000	    0.00000	 500.0	 3	    1.10000	    0.90000;
	163	 1	 0.0	 0.0	 0.0	 0.00335811035315	 1	    1.00000	    0.00000	 500.0	 3	    1.10000	    0.90000;
	164	 1	 0.0	 0.0	 0.0	 0.0	 1	    1.00000	    0.00000	 500.0	 3	    1.10000	    0.90000;
	165	 1	 6.027	 21.918	 0.0	 0.0	 1	    1.00000	    0.00000	 500.0	 3	    1.10000	    0.90000;
	166	 2	 2.74	 5.479	 0.0	 0.0	 1	    1.00000	    0.00000	 500.0	 3	    1.10000	    0.90000;
	167	 1	 3.797	 1.704	 0.0	 0.0	 1	    1.00000	    0.00000	 138.0	 3	    1.10000	    0.90000;
	168	 2	 8.027	 0.548	 0.0	 0.0	 1	    1.00000	    0.00000	 138.0	 3	    1.10000	    0.90000;
	169	 1	 4.46	 0.723	 0.0	 0.0	 1	    1.00000	    0.00000	 138.0	 3	    1.10000	    0.90000;
	170	 1	 7.764	 2.312	 0.0	 0.0	 1	    1.00000	    0.00000	 138.0	 3	    1.10000	    0.90000;
	171	 1	 2.312	 0.548	 0.0	 0.0	 1	    1.00000	    0.00000	 138.0	 3	    1.10000	    0.90000;
	172	 1	 72.279	 31.264	 0.0	 16.0407575511	 1	    1.00000	    0.00000	 138.0	 3	    1.10000	    0.90000;
	173	 1	 0.0	 0.0	 0.0	 0.000126326795128	 1	    1.00000	    0.00000	 32.0	 3	    1.10000	    0.90000;
	174	 1	 0.0	 0.0	 0.0	 0.0	 1	    1.00000	    0.00000	 138.0	 3	    1.10000	    0.90000;
	175	 1	 2.86	 1.156	 0.0	 0.0	 1	    1.00000	    0.00000	 138.0	 3	    1.10000	    0.90000;
	176	 1	 1.43	 0.548	 0.0	 0.0	 1	    1.00000	    0.00000	 138.0	 3	    1.10000	    0.90000;
	177	 1	 0.005	 0.005	 0.0	 0.0	 1	    1.00000	    0.00000	 138.0	 3	    1.10000	    0.90000;
	178	 2	 0.005	 0.005	 0.0	 0.0	 1	    1.00000	    0.00000	 138.0	 3	    1.10000	    0.90000;
	179	 1	 8.586	 2.86	 0.0	 0.0	 1	    1.00000	    0.00000	 138.0	 3	    1.10000	    0.90000;
	180	 1	 9.195	 2.586	 0.0	 0.0	 1	    1.00000	    0.00000	 138.0	 3	    1.10000	    0.90000;
	181	 1	 2.312	 0.274	 0.0	 0.0	 1	    1.00000	    0.00000	 138.0	 3	    1.10000	    0.90000;
	182	 1	 5.945	 0.548	 0.0	 0.0	 1	    1.00000	    0.00000	 138.0	 3	    1.10000	    0.90000;
	183	 2	 8.038	 1.704	 0.0	 0.0	 1	    1.00000	    0.00000	 138.0	 3	    1.10000	    0.90000;
	184	 1	 4.132	 0.548	 0.0	 0.0	 1	    1.00000	    0.00000	 138.0	 3	    1.10000	    0.90000;
	185	 2	 1.156	 0.274	 0.0	 0.0	 1	    1.00000	    0.00000	 138.0	 3	    1.10000	    0.90000;
	186	 1	 3.14	 0.548	 0.0	 0.0	 1	    1.00000	    0.00000	 138.0	 3	    1.10000	    0.90000;
	187	 1	 0.0	 0.0	 0.0	 55.9920014246	 1	    1.00000	    0.00000	 16.0	 3	    1.10000	    0.90000;
	188	 2	 5.178	 1.43	 0.0	 5.27387853308	 1	    1.00000	    0.00000	 138.0	 3	    1.10000	    0.90000;
	189	 1	 2.312	 0.548	 0.0	 0.0	 1	    1.00000	    0.00000	 138.0	 3	    1.10000	    0.90000;
	190	 1	 0.0	 0.0	 0.0	 0.0156527920741	 1	    1.00000	    0.00000	 138.0	 3	    1.10000	    0.90000;
	191	 1	 8.586	 1.43	 0.0	 0.0	 1	    1.00000	    0.00000	 138.0	 3	    1.10000	    0.90000;
	192	 1	 10.899	 3.742	 0.0	 0.0	 1	    1.00000	    0.00000	 138.0	 3	    1.10000	    0.90000;
	193	 1	 4.57	 1.485	 0.0	 0.0	 1	    1.00000	    0.00000	 138.0	 3	    1.10000	    0.90000;
	194	 1	 9.195	 3.468	 0.0	 0.0	 1	    1.00000	    0.00000	 138.0	 3	    1.10000	    0.90000;
	195	 2	 8.038	 1.704	 0.0	 0.0	 1	    1.00000	    0.00000	 138.0	 3	    1.10000	    0.90000;
	196	 1	 3.179	 -0.123	 0.0	 0.0	 1	    1.00000	    0.00000	 138.0	 3	    1.10000	    0.90000;
	197	 1	 4.016	 1.156	 0.0	 0.0	 1	    1.00000	    0.00000	 138.0	 3	    1.10000	    0.90000;
	198	 1	 2.86	 0.274	 0.0	 0.0	 1	    1.00000	    0.00000	 138.0	 3	    1.10000	    0.90000;
	199	 1	 0.0	 0.0	 0.0	 -2.49761461351	 1	    1.00000	    0.00000	 138.0	 3	    1.10000	    0.90000;
	200	 1	 0.0	 0.0	 0.0	 -18.0621211952	 1	    1.00000	    0.00000	 138.0	 3	    1.10000	    0.90000;
...
];

%% generator data
%	bus	Pg	Qg	Qmax	Qmin	Vg	mBase	status	Pmax	Pmin
mpc.gen = [
	9	 0.0	 0.0	 93.531	 -93.531	 1.0	 252.98	 0	 301.471	 135.0;
	10	 0.0	 0.0	 155.693	 -155.693	 1.0	 267.71	 0	 501.832	 171.516;
	10	 0.0	 0.0	 162.14	 -162.14	 1.0	 256.16	 0	 522.609	 178.876;
	11	 0.0	 0.0	 20.075	 -20.075	 1.0	 55.0	 0	 64.706	 35.833;
	12	 0.0	 0.0	 20.075	 -20.075	 1.0	 55.0	 0	 64.706	 35.833;
	24	 45.3265	 0.0	 27.194	 -27.194	 1.0	 100.0	 1	 87.653	 3.0;
	26	 0.0	 0.0	 5.475	 -5.475	 1.0	 15.0	 0	 17.647	 3.0;
	46	 8.559	 0.0	 4.38	 -4.38	 1.0	 12.0	 1	 14.118	 3.0;
	68	 218.2355	 0.0	 93.531	 -93.531	 1.0	 267.05	 1	 301.471	 135.0;
	75	 0.0	 0.0	 74.825	 -74.825	 1.0	 253.76	 0	 241.176	 135.0;
	76	 186.4705	 0.0	 84.68	 -84.68	 1.0	 232.0	 1	 272.941	 100.0;
	77	 0.0	 0.0	 91.25	 -91.25	 1.0	 268.92	 0	 294.118	 90.0;
	77	 152.827	 0.0	 90.313	 -90.313	 1.0	 100.0	 1	 291.099	 14.555;
	78	 107.381	 0.0	 63.457	 -63.457	 1.0	 100.0	 1	 204.535	 10.227;
	92	 0.0	 0.0	 81.03	 -81.03	 1.0	 222.0	 0	 261.176	 90.0;
	95	 0.0	 0.0	 104.755	 -104.755	 1.0	 2.04	 0	 337.647	 16.882;
	98	 0.0	 0.0	 24.044	 -24.044	 1.0	 65.75	 0	 77.5	 10.0;
	98	 158.059	 0.0	 97.455	 -97.455	 1.0	 6.0	 1	 314.118	 2.0;
	99	 154.6175	 0.0	 95.63	 -95.63	 1.0	 6.47	 1	 308.235	 1.0;
	112	 0.0	 0.0	 101.47	 -101.47	 1.0	 0.26	 0	 327.059	 16.353;
	112	 0.0	 0.0	 105.12	 -105.12	 1.0	 1.36	 0	 338.824	 1.0;
	120	 14.2645	 0.0	 7.3	 -7.3	 1.0	 20.0	 1	 23.529	 5.0;
	125	 0.0	 0.0	 23.725	 -23.725	 1.0	 65.0	 0	 76.471	 40.0;
	127	 0.0	 0.0	 11.315	 -11.315	 1.0	 31.0	 0	 36.471	 3.0;
	128	 0.0	 0.0	 11.315	 -11.315	 1.0	 31.0	 0	 36.471	 3.0;
	135	 168.7355	 0.0	 104.39	 -104.39	 1.0	 2.03	 1	 336.471	 1.0;
	138	 0.0	 0.0	 94.9	 -94.9	 1.0	 0.24	 0	 305.882	 15.294;
	150	 165.5295	 0.0	 97.82	 -97.82	 1.0	 108.13	 1	 315.294	 15.765;
	165	 0.0	 0.0	 65.335	 -65.335	 1.0	 216.55	 0	 210.588	 10.529;
	165	 0.0	 0.0	 65.335	 -65.335	 1.0	 179.0	 0	 210.588	 10.529;
	165	 0.0	 0.0	 65.335	 -65.335	 1.0	 179.0	 0	 210.588	 10.529;
	166	 107.094	 0.0	 65.335	 -65.335	 1.0	 179.0	 1	 210.588	 3.6;
	168	 45.353	 0.0	 20.075	 -20.075	 1.0	 58.99	 1	 64.706	 26.0;
	171	 0.0	 0.0	 103.66	 -103.66	 1.0	 0.36	 0	 334.118	 16.706;
	177	 0.0	 0.0	 6.57	 -6.57	 1.0	 18.0	 0	 21.176	 3.0;
	178	 14.441	 0.0	 8.03	 -8.03	 1.0	 22.0	 1	 25.882	 3.0;
	183	 159.604	 0.0	 95.63	 -95.63	 1.0	 0.24	 1	 308.235	 10.973;
	185	 162.088	 0.0	 99.645	 -99.645	 1.0	 100.0	 1	 321.176	 3.0;
	188	 176.3825	 0.0	 109.135	 -109.135	 1.0	 2.0	 1	 351.765	 1.0;
	194	 0.0	 0.0	 103.66	 -103.66	 1.0	 1.0	 0	 334.118	 16.706;
	195	 152.088	 0.0	 93.44	 -93.44	 1.0	 1.08	 1	 301.176	 3.0;
	201	 179.7355	 0.0	 106.215	 -106.215	 1.0	 0.12	 1	 342.353	 17.118;
	207	 0.0	 0.0	 107.31	 -107.31	 1.0	 9.0	 0	 345.882	 17.294;
	209	 0.0	 0.0	 95.265	 -95.265	 1.0	 0.24	 0	 307.059	 15.353;
	217	 105.627	 0.0	 62.42	 -62.42	 1.0	 100.0	 1	 201.194	 10.06;
	223	 0.0	 0.0	 98.101	 -98.101	 1.0	 282.49	 0	 316.2	 120.0;
	224	 218.0885	 0.0	 98.094	 -98.094	 1.0	 281.34	 1	 316.177	 120.0;
	225	 218.2355	 0.0	 93.531	 -93.531	 1.0	 252.98	 1	 301.471	 135.0;
	246	 218.0885	 0.0	 98.094	 -98.094	 1.0	 273.78	 1	 316.177	 120.0;
	248	 37.2745	 0.0	 22.027	 -22.027	 1.0	 100.0	 1	 70.999	 3.55;
	252	 126.912	 0.0	 57.031	 -57.031	 1.0	 160.45	 1	 183.824	 70.0;
	252	 0.0	 0.0	 45.625	 -45.625	 1.0	 143.77	 0	 147.059	 70.0;
	274	 0.0	 0.0	 108.405	 -108.405	 1.0	 42.43	 0	 349.412	 17.471;
	282	 21.5	 0.0	 500.0	 -500.0	 1.0	 100.0	 1	 40.0	 3.0;
	289	 0.0	 0.0	 65.335	 -65.335	 1.0	 216.55	 0	 210.588	 10.529;
	289	 110.5585	 0.0	 65.335	 -65.335	 1.0	 179.0	 1	 210.588	 10.529;
	289	 0.0	 0.0	 65.335	 -65.335	 1.0	 179.0	 0	 210.588	 10.529;
	290	 0.0	 0.0	 65.335	 -65.335	 1.0	 179.0	 0	 210.588	 10.529;
	292	 45.353	 0.0	 20.075	 -20.075	 1.0	 58.99	 1	 64.706	 26.0;
	295	 0.0	 0.0	 108.04	 -108.04	 1.0	 0.36	 0	 348.235	 17.412;
	297	 21.5	 0.0	 547.5	 -547.5	 1.0	 100.0	 1	 40.0	 3.0;
	301	 0.0	 0.0	 6.57	 -6.57	 1.0	 18.0	 0	 21.176	 3.0;
	302	 0.0	 0.0	 8.03	 -8.03	 1.0	 22.0	 0	 25.882	 3.0;
	307	 0.0	 0.0	 107.31	 -107.31	 1.0	 0.24	 0	 345.882	 17.294;
	311	 21.5	 0.0	 547.5	 -547.5	 1.0	 100.0	 1	 40.0	 3.0;
	312	 0.0	 0.0	 94.17	 -94.17	 1.0	 2.0	 0	 303.529	 1.0;
	318	 179.2475	 0.0	 109.135	 -109.135	 1.0	 1.0	 1	 351.765	 6.73;
	319	 0.0	 0.0	 96.36	 -96.36	 1.0	 1.08	 0	 310.588	 15.529;
	325	 0.0	 0.0	 97.455	 -97.455	 1.0	 0.12	 0	 314.118	 15.706;
	331	 156.8825	 0.0	 92.71	 -92.71	 1.0	 9.0	 1	 298.824	 14.941;
	333	 0.0	 0.0	 97.455	 -97.455	 1.0	 0.24	 0	 314.118	 15.706;
	343	 0.0	 0.0	 147.451	 -147.451	 1.0	 100.0	 0	 475.266	 23.763;
	344	 249.5145	 0.0	 147.451	 -147.451	 1.0	 100.0	 1	 475.266	 23.763;
	345	 249.541	 0.0	 147.467	 -147.467	 1.0	 100.0	 1	 475.316	 23.766;
	347	 0.0	 0.0	 134.137	 -134.137	 1.0	 100.0	 0	 432.353	 21.618;
	349	 164.6585	 0.0	 98.55	 -98.55	 1.0	 100.0	 1	 317.647	 11.67;
	350	 0.0	 0.0	 98.55	 -98.55	 1.0	 100.0	 0	 317.647	 15.882;
	351	 0.0	 0.0	 98.55	 -98.55	 1.0	 100.0	 0	 317.647	 15.882;
	352	 166.7645	 0.0	 98.55	 -98.55	 1.0	 100.0	 1	 317.647	 15.882;
	353	 187.6105	 0.0	 110.869	 -110.869	 1.0	 100.0	 1	 357.353	 17.868;
	354	 0.0	 0.0	 110.869	 -110.869	 1.0	 100.0	 0	 357.353	 17.868;
	355	 0.0	 0.0	 98.961	 -98.961	 1.0	 100.0	 0	 318.971	 15.949;
	356	 167.46	 0.0	 98.961	 -98.961	 1.0	 100.0	 1	 318.971	 15.949;
	357	 167.46	 0.0	 98.961	 -98.961	 1.0	 100.0	 1	 318.971	 15.949;
	358	 214.2	 0.0	 126.582	 -126.582	 1.0	 100.0	 1	 408.0	 20.4;
	360	 0.0	 0.0	 145.242	 -145.242	 1.0	 100.0	 0	 468.145	 23.407;
	361	 0.0	 0.0	 145.242	 -145.242	 1.0	 100.0	 0	 468.145	 23.407;
	362	 0.0	 0.0	 145.242	 -145.242	 1.0	 100.0	 0	 468.145	 23.407;
	364	 224.669	 0.0	 132.769	 -132.769	 1.0	 100.0	 1	 427.941	 21.397;
	365	 0.0	 0.0	 132.769	 -132.769	 1.0	 100.0	 0	 427.941	 21.397;
	366	 135.496	 0.0	 80.072	 -80.072	 1.0	 100.0	 1	 258.088	 12.904;
	367	 0.0	 0.0	 80.072	 -80.072	 1.0	 100.0	 0	 258.088	 12.904;
	379	 482.7415	 0.0	 285.277	 -285.277	 1.0	 100.0	 1	 919.508	 45.975;
	385	 290.5635	 0.0	 171.709	 -171.709	 1.0	 100.0	 1	 553.454	 27.673;
	392	 0.0	 0.0	 148.427	 -148.427	 1.0	 100.0	 0	 478.409	 23.92;
	393	 0.0	 0.0	 148.282	 -148.282	 1.0	 100.0	 0	 477.944	 23.897;
	394	 0.0	 0.0	 148.411	 -148.411	 1.0	 100.0	 0	 478.359	 23.918;
	395	 0.0	 0.0	 148.387	 -148.387	 1.0	 100.0	 0	 478.281	 23.914;
	397	 0.0	 0.0	 134.137	 -134.137	 1.0	 100.0	 0	 432.353	 21.618;
	399	 0.0	 0.0	 134.137	 -134.137	 1.0	 100.0	 0	 432.353	 21.618;
	400	 0.0	 0.0	 134.137	 -134.137	 1.0	 100.0	 0	 432.353	 21.618;
	402	 0.0	 0.0	 98.55	 -98.55	 1.0	 100.0	 0	 317.647	 15.882;
	403	 0.0	 0.0	 98.55	 -98.55	 1.0	 100.0	 0	 317.647	 15.882;
	404	 166.7645	 0.0	 98.55	 -98.55	 1.0	 100.0	 1	 317.647	 15.882;
	405	 0.0	 0.0	 98.55	 -98.55	 1.0	 100.0	 0	 317.647	 15.882;
	406	 0.0	 0.0	 110.869	 -110.869	 1.0	 100.0	 0	 357.353	 17.868;
	407	 187.6105	 0.0	 110.869	 -110.869	 1.0	 100.0	 1	 357.353	 17.868;
	408	 0.0	 0.0	 98.961	 -98.961	 1.0	 100.0	 0	 318.971	 15.949;
	409	 0.0	 0.0	 98.961	 -98.961	 1.0	 100.0	 0	 318.971	 15.949;
	410	 167.46	 0.0	 98.961	 -98.961	 1.0	 100.0	 1	 318.971	 15.949;
	411	 0.0	 0.0	 126.582	 -126.582	 1.0	 100.0	 0	 408.0	 20.4;
	414	 0.0	 0.0	 115.659	 -115.659	 1.0	 100.0	 0	 372.794	 18.64;
	415	 187.897	 0.0	 115.659	 -115.659	 1.0	 100.0	 1	 372.794	 3.0;
	416	 0.0	 0.0	 115.659	 -115.659	 1.0	 100.0	 0	 372.794	 18.64;
	417	 242.7355	 0.0	 143.445	 -143.445	 1.0	 100.0	 1	 462.353	 23.118;
	418	 0.0	 0.0	 119.081	 -119.081	 1.0	 100.0	 0	 383.824	 19.191;
	419	 193.7195	 0.0	 119.081	 -119.081	 1.0	 100.0	 1	 383.824	 3.615;
	420	 0.0	 0.0	 114.975	 -114.975	 1.0	 100.0	 0	 370.588	 18.529;
	421	 0.0	 0.0	 148.443	 -148.443	 1.0	 100.0	 0	 478.464	 23.923;
	423	 0.0	 0.0	 30.112	 -30.112	 1.0	 100.0	 0	 97.059	 4.853;
	424	 50.956	 0.0	 30.112	 -30.112	 1.0	 100.0	 1	 97.059	 4.853;
	425	 0.0	 0.0	 30.797	 -30.797	 1.0	 100.0	 0	 99.265	 4.963;
	426	 0.0	 0.0	 30.797	 -30.797	 1.0	 100.0	 0	 99.265	 4.963;
	427	 0.0	 0.0	 30.797	 -30.797	 1.0	 100.0	 0	 99.265	 4.963;
	428	 0.0	 0.0	 30.797	 -30.797	 1.0	 100.0	 0	 99.265	 4.963;
	430	 0.0	 0.0	 132.769	 -132.769	 1.0	 100.0	 0	 427.941	 21.397;
	431	 224.669	 0.0	 132.769	 -132.769	 1.0	 100.0	 1	 427.941	 21.397;
	432	 0.0	 0.0	 80.072	 -80.072	 1.0	 100.0	 0	 258.088	 12.904;
	433	 0.0	 0.0	 80.072	 -80.072	 1.0	 100.0	 0	 258.088	 12.904;
	444	 254.906	 0.0	 150.637	 -150.637	 1.0	 100.0	 1	 485.535	 24.277;
	445	 211.2385	 0.0	 124.832	 -124.832	 1.0	 100.0	 1	 402.359	 20.118;
	452	 263.841	 0.0	 155.917	 -155.917	 1.0	 100.0	 1	 502.554	 25.128;
	453	 0.0	 0.0	 155.856	 -155.856	 1.0	 100.0	 0	 502.356	 25.118;
	455	 263.3785	 0.0	 155.644	 -155.644	 1.0	 100.0	 1	 501.673	 25.084;
	456	 0.0	 0.0	 155.66	 -155.66	 1.0	 100.0	 0	 501.726	 25.086;
	457	 0.0	 0.0	 127.567	 -127.567	 1.0	 100.0	 0	 411.176	 20.559;
	458	 0.0	 0.0	 127.567	 -127.567	 1.0	 100.0	 0	 411.176	 20.559;
	459	 263.118	 0.0	 155.49	 -155.49	 1.0	 100.0	 1	 501.177	 25.059;
	460	 0.0	 0.0	 125.925	 -125.925	 1.0	 100.0	 0	 405.882	 20.294;
	461	 0.0	 0.0	 125.925	 -125.925	 1.0	 100.0	 0	 405.882	 20.294;
	462	 0.0	 0.0	 155.811	 -155.811	 1.0	 100.0	 0	 502.212	 25.111;
	463	 21.5	 0.0	 547.5	 -547.5	 1.0	 100.0	 1	 40.0	 3.0;
	464	 0.0	 0.0	 155.835	 -155.835	 1.0	 100.0	 0	 502.287	 25.114;
	465	 262.3935	 0.0	 155.835	 -155.835	 1.0	 100.0	 1	 502.287	 22.5;
	468	 246.0535	 0.0	 145.406	 -145.406	 1.0	 100.0	 1	 468.673	 23.434;
	469	 487.639	 0.0	 288.172	 -288.172	 1.0	 100.0	 1	 928.836	 46.442;
	470	 685.066	 0.0	 404.842	 -404.842	 1.0	 100.0	 1	 1304.888	 65.244;
	480	 0.0	 0.0	 227.759	 -227.759	 1.0	 100.0	 0	 734.113	 36.706;
	488	 107.23	 0.0	 63.368	 -63.368	 1.0	 100.0	 1	 204.248	 10.212;
	489	 107.0835	 0.0	 63.282	 -63.282	 1.0	 100.0	 1	 203.969	 10.198;
	507	 23.9995	 0.0	 13.961	 -13.961	 1.0	 100.0	 1	 44.999	 3.0;
	509	 0.0	 0.0	 28.47	 -28.47	 1.0	 78.0	 0	 91.765	 11.0;
	527	 0.0	 0.0	 31.481	 -31.481	 1.0	 83.96	 0	 101.471	 21.0;
	546	 0.0	 0.0	 98.083	 -98.083	 1.0	 258.66	 0	 316.143	 15.807;
	558	 17.4845	 0.0	 9.919	 -9.919	 1.0	 100.0	 1	 31.969	 3.0;
	588	 0.0	 0.0	 98.094	 -98.094	 1.0	 282.49	 0	 316.177	 120.0;
	589	 0.0	 0.0	 98.094	 -98.094	 1.0	 281.34	 0	 316.177	 120.0;
	594	 0.0	 0.0	 93.531	 -93.531	 1.0	 252.98	 0	 301.471	 135.0;
	595	 0.0	 0.0	 98.094	 -98.094	 1.0	 267.71	 0	 316.177	 135.0;
	595	 0.0	 0.0	 93.531	 -93.531	 1.0	 256.16	 0	 301.471	 135.0;
	596	 0.0	 0.0	 99.134	 -99.134	 1.0	 270.08	 0	 319.529	 135.0;
	596	 0.0	 0.0	 97.048	 -97.048	 1.0	 246.1	 0	 312.807	 135.0;
	600	 0.0	 0.0	 20.075	 -20.075	 1.0	 55.0	 0	 64.706	 35.833;
	601	 50.2695	 0.0	 20.075	 -20.075	 1.0	 55.0	 1	 64.706	 35.833;
	606	 0.0	 0.0	 6.205	 -6.205	 1.0	 17.0	 0	 20.0	 3.0;
	630	 10.3235	 0.0	 5.475	 -5.475	 1.0	 15.0	 1	 17.647	 3.0;
	634	 0.0	 0.0	 98.094	 -98.094	 1.0	 273.78	 0	 316.177	 120.0;
	653	 8.559	 0.0	 4.38	 -4.38	 1.0	 12.0	 1	 14.118	 3.0;
	654	 0.0	 0.0	 92.345	 -92.345	 1.0	 14.4	 0	 297.647	 14.882;
	686	 51.79	 0.0	 30.606	 -30.606	 1.0	 100.0	 1	 98.648	 4.932;
	687	 0.0	 0.0	 93.531	 -93.531	 1.0	 267.05	 0	 301.471	 135.0;
	689	 218.2355	 0.0	 93.531	 -93.531	 1.0	 258.02	 1	 301.471	 135.0;
	694	 155.6475	 0.0	 91.98	 -91.98	 1.0	 34.76	 1	 296.471	 14.824;
	695	 0.0	 0.0	 94.17	 -94.17	 1.0	 42.43	 0	 303.529	 15.176;
	696	 0.0	 0.0	 97.82	 -97.82	 1.0	 19.32	 0	 315.294	 15.765;
	697	 245.8815	 0.0	 145.304	 -145.304	 1.0	 100.0	 1	 468.346	 23.417;
	701	 0.0	 0.0	 91.98	 -91.98	 1.0	 1.0	 0	 296.471	 14.824;
	704	 0.0	 0.0	 4.745	 -4.745	 1.0	 13.0	 0	 15.294	 2.0;
	708	 0.0	 0.0	 24.234	 -24.234	 1.0	 67.62	 0	 78.112	 26.0;
	710	 47.1685	 0.0	 27.874	 -27.874	 1.0	 100.0	 1	 89.845	 4.492;
	732	 0.0	 0.0	 103.295	 -103.295	 1.0	 3.0	 0	 332.941	 16.647;
	733	 0.0	 0.0	 5.475	 -5.475	 1.0	 15.0	 0	 17.647	 3.0;
	739	 163.0585	 0.0	 96.36	 -96.36	 1.0	 4.0	 1	 310.588	 15.529;
	756	 373.6765	 0.0	 157.406	 -157.406	 1.0	 449.45	 1	 507.353	 240.0;
	757	 0.0	 0.0	 168.812	 -168.812	 1.0	 455.56	 0	 544.118	 240.0;
	757	 337.647	 0.0	 135.05	 -135.05	 1.0	 397.31	 1	 435.294	 240.0;
	758	 998.3845	 0.0	 617.946	 -617.946	 1.0	 616.84	 1	 1991.769	 5.0;
	758	 998.3845	 0.0	 617.946	 -617.946	 1.0	 616.84	 1	 1991.769	 5.0;
	758	 998.3845	 0.0	 617.946	 -617.946	 1.0	 616.84	 1	 1991.769	 5.0;
	759	 392.059	 0.0	 168.812	 -168.812	 1.0	 451.84	 1	 544.118	 240.0;
	759	 0.0	 0.0	 155.125	 -155.125	 1.0	 416.51	 0	 500.0	 240.0;
	759	 370.0	 0.0	 155.125	 -155.125	 1.0	 416.51	 1	 500.0	 240.0;
	784	 377.353	 0.0	 159.688	 -159.688	 1.0	 477.9	 1	 514.706	 240.0;
	792	 0.0	 0.0	 10.95	 -10.95	 1.0	 30.0	 0	 35.294	 3.0;
	805	 0.0	 0.0	 100.74	 -100.74	 1.0	 1.08	 0	 324.706	 16.235;
	805	 0.0	 0.0	 96.36	 -96.36	 1.0	 1.0	 0	 310.588	 15.529;
	805	 169.2355	 0.0	 100.01	 -100.01	 1.0	 1.0	 1	 322.353	 16.118;
	809	 0.0	 0.0	 21.9	 -21.9	 1.0	 60.0	 0	 70.588	 25.0;
	812	 157.8925	 0.0	 97.455	 -97.455	 1.0	 4.33	 1	 314.118	 1.667;
	830	 0.0	 0.0	 100.74	 -100.74	 1.0	 0.43	 0	 324.706	 16.235;
...
];

%% generator cost data
%	2	startup	shutdown	n	c(n-1)	...	c0
mpc.gencost = [
2	0.0	0.0	3	0.2	1.796000	7812.000000;
2	0.0	0.0	3	0.2	4.025000	17120.000000;
2	0.0	0.0	3	0.2	3.483000	16020.000000;
2	0.0	0.0	3	0.2	42.270000	1258.000000;
2	0.0	0.0	3	0.2	28.510000	1864.000000;
2	0.0	0.0	3	0.2	9.723000	238.000000;
2	0.0	0.0	3	0.2	56.190000	116.600000;
2	0.0	0.0	3	0.2	25.960000	99.670000;
2	0.0	0.0	3	0.2	2.005000	7668.000000;
	2	 0.0	 0.0	 3	   0.059040	  35.310000	 7969.000000;
	2	 0.0	 0.0	 3	   0.022750	  26.830000	 7297.000000;
	2	 0.0	 0.0	 3	   0.016100	  23.730000	 6939.000000;
	2	 0.0	 0.0	 3	   0.008794	  19.390000	 1239.000000;
	2	 0.0	 0.0	 3	   0.017770	  27.610000	 815.100000;
	2	 0.0	 0.0	 3	   0.022860	  27.650000	 6526.000000;
2	0.0	0.0	3	0.2	0.824300	1285.000000;
2	0.0	0.0	3	0.2	12.790000	361.000000;
2	0.0	0.0	3	0.2	2.416000	150.000000;
2	0.0	0.0	3	0.2	2.678000	101.200000;
2	0.0	0.0	3	0.2	1.279000	1043.000000;
2	0.0	0.0	3	0.2	1.690000	80.830000;
	2	 0.0	 0.0	 3	   1.550000	   7.233000	 268.000000;
2	0.0	0.0	3	0.2	36.650000	4912.000000;
2	0.0	0.0	3	0.2	5.708000	165.300000;
2	0.0	0.0	3	0.2	5.867000	270.900000;
2	0.0	0.0	3	0.2	1.762000	93.660000;
2	0.0	0.0	3	0.2	1.158000	1013.000000;
2	0.0	0.0	3	0.2	1.254000	1116.000000;
	2	 0.0	 0.0	 3	   0.016770	  26.820000	 821.900000;
	2	 0.0	 0.0	 3	   0.016770	  26.820000	 839.900000;
	2	 0.0	 0.0	 3	   0.016770	  26.820000	 803.900000;
	2	 0.0	 0.0	 3	   0.146100	   0.000000	 373.700000;
2	0.0	0.0	3	0.2	15.060000	820.100000;
2	0.0	0.0	3	0.2	1.434000	1135.000000;
2	0.0	0.0	3	0.2	51.540000	99.340000;
	2	 0.0	 0.0	 3	   2.452000	 110.800000	 -211.200000;
2	0.0	0.0	3	0.2	0.474000	787.600000;
2	0.0	0.0	3	0.2	2.575000	322.900000;
2	0.0	0.0	3	0.2	1.293000	99.840000;
2	0.0	0.0	3	0.2	1.112000	1212.000000;
2	0.0	0.0	3	0.2	1.217000	211.800000;
2	0.0	0.0	3	0.2	0.919100	1020.000000;
2	0.0	0.0	3	0.2	1.171000	1186.000000;
2	0.0	0.0	3	0.2	1.273000	923.200000;
	2	 0.0	 0.0	 3	   0.018370	  28.070000	 762.000000;
2	0.0	0.0	3	0.2	1.055000	8458.000000;
2	0.0	0.0	3	0.2	2.175000	7549.000000;
2	0.0	0.0	3	0.2	0.368500	8809.000000;
2	0.0	0.0	3	0.2	1.019000	8174.000000;
2	0.0	0.0	3	0.2	18.110000	177.100000;
	2	 0.0	 0.0	 3	   0.051490	  40.590000	 1679.000000;
	2	 0.0	 0.0	 3	   0.111500	  55.060000	 2769.000000;
2	0.0	0.0	3	0.2	1.876000	1436.000000;
	2	 0.0	 0.0	 3	   0.398100	   8.848000	 182.300000;
	2	 0.0	 0.0	 3	   0.016770	  26.820000	 815.900000;
	2	 0.0	 0.0	 3	   0.016770	  26.820000	 833.900000;
	2	 0.0	 0.0	 3	   0.016770	  26.820000	 845.900000;
	2	 0.0	 0.0	 3	   0.016770	  26.820000	 815.900000;
2	0.0	0.0	3	0.2	47.680000	370.700000;
2	0.0	0.0	3	0.2	2.487000	1418.000000;
2	0.0	0.0	3	0.2	18.240000	271.500000;
2	0.0	0.0	3	0.2	13.830000	92.570000;
	2	 0.0	 0.0	 3	   1.041000	  12.320000	 203.900000;
2	0.0	0.0	3	0.2	1.143000	1225.000000;
2	0.0	0.0	3	0.2	4.968000	288.200000;
2	0.0	0.0	3	0.2	1.710000	104.500000;
2	0.0	0.0	3	0.2	1.713000	420.500000;
2	0.0	0.0	3	0.2	1.141000	998.400000;
2	0.0	0.0	3	0.2	1.259000	1136.000000;
	2	 0.0	 0.0	 3	   0.008346	  18.890000	 1248.000000;
2	0.0	0.0	3	0.2	1.482000	1110.000000;
2	0.0	0.0	3	0.2	1.461000	1686.000000;
2	0.0	0.0	3	0.2	0.802100	1334.000000;
2	0.0	0.0	3	0.2	0.910400	1514.000000;
2	0.0	0.0	3	0.2	1.108000	1498.000000;
2	0.0	0.0	3	0.2	0.995800	852.900000;
2	0.0	0.0	3	0.2	0.542800	1098.000000;
2	0.0	0.0	3	0.2	0.467000	1084.000000;
2	0.0	0.0	3	0.2	2.716000	1719.000000;
2	0.0	0.0	3	0.2	1.335000	1244.000000;
2	0.0	0.0	3	0.2	1.040000	1265.000000;
2	0.0	0.0	3	0.2	1.197000	1157.000000;
2	0.0	0.0	3	0.2	0.986400	975.000000;
2	0.0	0.0	3	0.2	1.036000	946.000000;
2	0.0	0.0	3	0.2	0.957900	1260.000000;
2	0.0	0.0	3	0.2	0.677800	1833.000000;
2	0.0	0.0	3	0.2	0.465300	1664.000000;
2	0.0	0.0	3	0.2	1.662000	1735.000000;
2	0.0	0.0	3	0.2	0.150900	1443.000000;
2	0.0	0.0	3	0.2	0.491700	1470.000000;
	2	 0.0	 0.0	 3	   0.014700	  17.650000	 1050.000000;
2	0.0	0.0	3	0.2	24.400000	1118.000000;
2	0.0	0.0	3	0.2	0.359700	2362.000000;
2	0.0	0.0	3	0.2	1.027000	1786.000000;
2	0.0	0.0	3	0.2	0.784100	1607.000000;
2	0.0	0.0	3	0.2	0.765300	1471.000000;
2	0.0	0.0	3	0.2	0.125300	1610.000000;
2	0.0	0.0	3	0.2	0.581900	1805.000000;
2	0.0	0.0	3	0.2	2.078000	1819.000000;
2	0.0	0.0	3	0.2	1.836000	1583.000000;
2	0.0	0.0	3	0.2	2.003000	1737.000000;
2	0.0	0.0	3	0.2	1.317000	1013.000000;
2	0.0	0.0	3	0.2	1.806000	1107.000000;
2	0.0	0.0	3	0.2	0.880800	1044.000000;
2	0.0	0.0	3	0.2	1.245000	1149.000000;
2	0.0	0.0	3	0.2	0.415100	2467.000000;
2	0.0	0.0	3	0.2	1.524000	1198.000000;
2	0.0	0.0	3	0.2	1.951000	1015.000000;
2	0.0	0.0	3	0.2	1.111000	1043.000000;
2	0.0	0.0	3	0.2	1.240000	1129.000000;
2	0.0	0.0	3	0.2	1.011000	1314.000000;
2	0.0	0.0	3	0.2	1.249000	1342.000000;
2	0.0	0.0	3	0.2	1.784000	209.300000;
2	0.0	0.0	3	0.2	1.067000	1059.000000;
2	0.0	0.0	3	0.2	0.935900	1497.000000;
2	0.0	0.0	3	0.2	1.248000	1355.000000;
2	0.0	0.0	3	0.2	0.801400	270.500000;
2	0.0	0.0	3	0.2	1.230000	1269.000000;
2	0.0	0.0	3	0.2	0.310000	1647.000000;
2	0.0	0.0	3	0.2	9.514000	343.600000;
2	0.0	0.0	3	0.2	8.257000	370.400000;
2	0.0	0.0	3	0.2	11.920000	447.600000;
2	0.0	0.0	3	0.2	11.920000	405.600000;
2	0.0	0.0	3	0.2	11.920000	417.600000;
	2	 0.0	 0.0	 3	   0.046300	   2.324000	 400.500000;
2	0.0	0.0	3	0.2	0.913300	1339.000000;
2	0.0	0.0	3	0.2	0.741300	1649.000000;
	2	 0.0	 0.0	 3	   0.011180	  21.880000	 1070.000000;
	2	 0.0	 0.0	 3	   0.011180	  21.880000	 1082.000000;
2	0.0	0.0	3	0.2	0.133000	1602.000000;
2	0.0	0.0	3	0.2	0.522900	1406.000000;
2	0.0	0.0	3	0.2	0.497900	880.400000;
2	0.0	0.0	3	0.2	1.268000	977.700000;
2	0.0	0.0	3	0.2	3.710000	3175.000000;
	2	 0.0	 0.0	 3	   0.002262	   0.686200	 1779.000000;
2	0.0	0.0	3	0.2	0.912300	1402.000000;
2	0.0	0.0	3	0.2	0.889600	1244.000000;
	2	 0.0	 0.0	 3	   0.002267	   0.687000	 1771.000000;
2	0.0	0.0	3	0.2	0.685700	1558.000000;
2	0.0	0.0	3	0.2	2.214000	1683.000000;
2	0.0	0.0	3	0.2	2.287000	2297.000000;
2	0.0	0.0	3	0.2	15.150000	199.500000;
2	0.0	0.0	3	0.2	2.571000	2500.000000;
2	0.0	0.0	3	0.2	2.275000	2060.000000;
2	0.0	0.0	3	0.2	0.597000	1563.000000;
2	0.0	0.0	3	0.2	0.425800	3301.000000;
2	0.0	0.0	3	0.2	0.113700	8845.000000;
	2	 0.0	 0.0	 3	   0.001823	   6.198000	 3377.000000;
2	0.0	0.0	3	0.2	30.830000	795.100000;
2	0.0	0.0	3	0.2	30.870000	805.600000;
2	0.0	0.0	3	0.2	5.261000	186.100000;
2	0.0	0.0	3	0.2	2.736000	644.600000;
	2	 0.0	 0.0	 3	   0.102500	  63.340000	 778.800000;
2	0.0	0.0	3	0.2	2.196000	1118.000000;
2	0.0	0.0	3	0.2	7.627000	197.000000;
2	0.0	0.0	3	0.2	2.097000	7439.000000;
2	0.0	0.0	3	0.2	2.316000	8014.000000;
2	0.0	0.0	3	0.2	1.830000	9203.000000;
2	0.0	0.0	3	0.2	2.391000	8891.000000;
2	0.0	0.0	3	0.2	0.846500	8952.000000;
2	0.0	0.0	3	0.2	4.441000	14120.000000;
2	0.0	0.0	3	0.2	2.550000	9278.000000;
2	0.0	0.0	3	0.2	7.437000	1099.000000;
2	0.0	0.0	3	0.2	10.080000	2327.000000;
2	0.0	0.0	3	0.2	17.120000	222.000000;
2	0.0	0.0	3	0.2	83.050000	68.470000;
2	0.0	0.0	3	0.2	1.996000	7966.000000;
2	0.0	0.0	3	0.2	67.340000	50.280000;
	2	 0.0	 0.0	 3	   0.008412	  18.970000	 1242.000000;
	2	 0.0	 0.0	 3	   0.058840	   3.547000	 347.700000;
2	0.0	0.0	3	0.2	0.368500	8833.000000;
2	0.0	0.0	3	0.2	1.201000	9185.000000;
	2	 0.0	 0.0	 3	   0.008479	  19.040000	 1242.000000;
2	0.0	0.0	3	0.2	0.496100	1207.000000;
2	0.0	0.0	3	0.2	1.049000	825.200000;
2	0.0	0.0	3	0.2	1.400000	1885.000000;
	2	 0.0	 0.0	 3	   0.007944	  16.740000	 1160.000000;
2	0.0	0.0	3	0.2	45.630000	92.900000;
2	0.0	0.0	3	0.2	11.560000	1429.000000;
2	0.0	0.0	3	0.2	13.470000	375.500000;
2	0.0	0.0	3	0.2	2.699000	1398.000000;
2	0.0	0.0	3	0.2	11.180000	299.600000;
2	0.0	0.0	3	0.2	2.788000	1234.000000;
2	0.0	0.0	3	0.2	4.435000	21260.000000;
2	0.0	0.0	3	0.2	2.375000	18750.000000;
2	0.0	0.0	3	0.2	1.361000	15420.000000;
2	0.0	0.0	3	0.2	0.495900	408.300000;
2	0.0	0.0	3	0.2	0.082390	276.500000;
2	0.0	0.0	3	0.2	0.464800	271.400000;
2	0.0	0.0	3	0.2	2.498000	10630.000000;
2	0.0	0.0	3	0.2	2.433000	10510.000000;
2	0.0	0.0	3	0.2	0.876900	12080.000000;
2	0.0	0.0	3	0.2	0.890500	15970.000000;
2	0.0	0.0	3	0.2	3.049000	112.700000;
2	0.0	0.0	3	0.2	2.138000	1173.000000;
2	0.0	0.0	3	0.2	1.281000	882.400000;
2	0.0	0.0	3	0.2	1.238000	1078.000000;
2	0.0	0.0	3	0.2	13.240000	1178.000000;
2	0.0	0.0	3	0.2	0.975200	130.100000;
2	0.0	0.0	3	0.2	1.404000	1106.000000;
...
];

%% storage data
%	bus	energy	energy_rating	charge_rating	discharge_rating	thermal_rating	qmin	qmax	r	x	standby_loss	status
mpc.storage = [
	1408	0.0	0.0	1.00	2897.3025	1448.6513	1043.0289	0.9	0.85	1000	-1000	1000	0.1	0.01	0	0	1;
	1463	0.0	0.0	1.00	2187.4020	1093.7010	787.4647	0.9	0.85	1000	-1000	1000	0.1	0.01	0	0	1;
	368	0.0	0.0	1.00	1899.7350	949.8675	683.9046	0.9	0.85	1000	-1000	1000	0.1	0.01	0	0	1;
	412	0.0	0.0	1.00	1819.8405	909.9203	655.1426	0.9	0.85	1000	-1000	1000	0.1	0.01	0	0	1;
	342	0.0	0.0	1.00	1696.7805	848.3902	610.8410	0.9	0.85	1000	-1000	1000	0.1	0.01	0	0	1;
	479	0.0	0.0	1.00	1470.4530	735.2265	529.3631	0.9	0.85	1000	-1000	1000	0.1	0.01	0	0	1;
	440	0.0	0.0	1.00	1060.7070	530.3535	381.8545	0.9	0.85	1000	-1000	1000	0.1	0.01	0	0	1;
	1367	0.0	0.0	1.00	972.8955	486.4477	350.2424	0.9	0.85	1000	-1000	1000	0.1	0.01	0	0	1;
	2284	0.0	0.0	1.00	840.2565	420.1283	302.4923	0.9	0.85	1000	-1000	1000	0.1	0.01	0	0	1;
	1658	0.0	0.0	1.00	779.3775	389.6888	280.5759	0.9	0.85	1000	-1000	1000	0.1	0.01	0	0	1;
	441	0.0	0.0	1.00	742.0440	371.0220	267.1358	0.9	0.85	1000	-1000	1000	0.1	0.01	0	0	1;
	759	0.0	0.0	1.00	695.6250	347.8125	250.4250	0.9	0.85	1000	-1000	1000	0.1	0.01	0	0	1;
	2290	0.0	0.0	1.00	689.4825	344.7412	248.2137	0.9	0.85	1000	-1000	1000	0.1	0.01	0	0	1;
	341	0.0	0.0	1.00	672.0480	336.0240	241.9373	0.9	0.85	1000	-1000	1000	0.1	0.01	0	0	1;
	2308	0.0	0.0	1.00	603.3855	301.6927	217.2188	0.9	0.85	1000	-1000	1000	0.1	0.01	0	0	1;
	369	0.0	0.0	1.00	600.4005	300.2002	216.1442	0.9	0.85	1000	-1000	1000	0.1	0.01	0	0	1;
	1429	0.0	0.0	1.00	576.1140	288.0570	207.4010	0.9	0.85	1000	-1000	1000	0.1	0.01	0	0	1;
	492	0.0	0.0	1.00	553.9485	276.9742	199.4215	0.9	0.85	1000	-1000	1000	0.1	0.01	0	0	1;
	475	0.0	0.0	1.00	522.2445	261.1223	188.0080	0.9	0.85	1000	-1000	1000	0.1	0.01	0	0	1;
	150	0.0	0.0	1.00	521.0955	260.5478	187.5944	0.9	0.85	1000	-1000	1000	0.1	0.01	0	0	1;
	1496	0.0	0.0	1.00	500.2155	250.1077	180.0776	0.9	0.85	1000	-1000	1000	0.1	0.01	0	0	1;
	758	0.0	0.0	1.00	483.7695	241.8847	174.1570	0.9	0.85	1000	-1000	1000	0.1	0.01	0	0	1;
	1368	0.0	0.0	1.00	408.4995	204.2498	147.0598	0.9	0.85	1000	-1000	1000	0.1	0.01	0	0	1;
	1550	0.0	0.0	1.00	391.7205	195.8603	141.0194	0.9	0.85	1000	-1000	1000	0.1	0.01	0	0	1;
	385	0.0	0.0	1.00	381.6735	190.8367	137.4025	0.9	0.85	1000	-1000	1000	0.1	0.01	0	0	1;
	449	0.0	0.0	1.00	381.6735	190.8367	137.4025	0.9	0.85	1000	-1000	1000	0.1	0.01	0	0	1;
	1588	0.0	0.0	1.00	381.6735	190.8367	137.4025	0.9	0.85	1000	-1000	1000	0.1	0.01	0	0	1;
	486	0.0	0.0	1.00	374.1540	187.0770	134.6954	0.9	0.85	1000	-1000	1000	0.1	0.01	0	0	1;
	760	0.0	0.0	1.00	334.5360	167.2680	120.4330	0.9	0.85	1000	-1000	1000	0.1	0.01	0	0	1;
	274	0.0	0.0	1.00	333.6990	166.8495	120.1316	0.9	0.85	1000	-1000	1000	0.1	0.01	0	0	1;
	695	0.0	0.0	1.00	333.6990	166.8495	120.1316	0.9	0.85	1000	-1000	1000	0.1	0.01	0	0	1;
	2265	0.0	0.0	1.00	333.6990	166.8495	120.1316	0.9	0.85	1000	-1000	1000	0.1	0.01	0	0	1;
	372	0.0	0.0	1.00	330.0705	165.0352	118.8254	0.9	0.85	1000	-1000	1000	0.1	0.01	0	0	1;
	1528	0.0	0.0	1.00	327.2685	163.6343	117.8167	0.9	0.85	1000	-1000	1000	0.1	0.01	0	0	1;
	437	0.0	0.0	1.00	318.7605	159.3802	114.7538	0.9	0.85	1000	-1000	1000	0.1	0.01	0	0	1;
	1592	0.0	0.0	1.00	268.8735	134.4367	96.7945	0.9	0.85	1000	-1000	1000	0.1	0.01	0	0	1;
	1557	0.0	0.0	1.00	264.5625	132.2812	95.2425	0.9	0.85	1000	-1000	1000	0.1	0.01	0	0	1;
	1687	0.0	0.0	1.00	258.8550	129.4275	93.1878	0.9	0.85	1000	-1000	1000	0.1	0.01	0	0	1;
	488	0.0	0.0	1.00	254.3595	127.1798	91.5694	0.9	0.85	1000	-1000	1000	0.1	0.01	0	0	1;
	489	0.0	0.0	1.00	254.3595	127.1798	91.5694	0.9	0.85	1000	-1000	1000	0.1	0.01	0	0	1;
	495	0.0	0.0	1.00	250.3965	125.1983	90.1427	0.9	0.85	1000	-1000	1000	0.1	0.01	0	0	1;
	2298	0.0	0.0	1.00	240.4350	120.2175	86.5566	0.9	0.85	1000	-1000	1000	0.1	0.01	0	0	1;
	2303	0.0	0.0	1.00	240.4350	120.2175	86.5566	0.9	0.85	1000	-1000	1000	0.1	0.01	0	0	1;
	2305	0.0	0.0	1.00	240.4350	120.2175	86.5566	0.9	0.85	1000	-1000	1000	0.1	0.01	0	0	1;
	483	0.0	0.0	1.00	237.7860	118.8930	85.6030	0.9	0.85	1000	-1000	1000	0.1	0.01	0	0	1;
	477	0.0	0.0	1.00	235.6215	117.8107	84.8237	0.9	0.85	1000	-1000	1000	0.1	0.01	0	0	1;
	494	0.0	0.0	1.00	234.6240	117.3120	84.4646	0.9	0.85	1000	-1000	1000	0.1	0.01	0	0	1;
	474	0.0	0.0	1.00	231.5100	115.7550	83.3436	0.9	0.85	1000	-1000	1000	0.1	0.01	0	0	1;
	592	0.0	0.0	1.00	229.3335	114.6668	82.5601	0.9	0.85	1000	-1000	1000	0.1	0.01	0	0	1;
	1688	0.0	0.0	1.00	227.6460	113.8230	81.9526	0.9	0.85	1000	-1000	1000	0.1	0.01	0	0	1;
	1357	0.0	0.0	1.00	224.4120	112.2060	80.7883	0.9	0.85	1000	-1000	1000	0.1	0.01	0	0	1;
	384	0.0	0.0	1.00	212.4660	106.2330	76.4878	0.9	0.85	1000	-1000	1000	0.1	0.01	0	0	1;
	448	0.0	0.0	1.00	212.4660	106.2330	76.4878	0.9	0.85	1000	-1000	1000	0.1	0.01	0	0	1;
	1587	0.0	0.0	1.00	212.4660	106.2330	76.4878	0.9	0.85	1000	-1000	1000	0.1	0.01	0	0	1;
	1581	0.0	0.0	1.00	208.0605	104.0302	74.9018	0.9	0.85	1000	-1000	1000	0.1	0.01	0	0	1;
	1591	0.0	0.0	1.00	206.0220	103.0110	74.1679	0.9	0.85	1000	-1000	1000	0.1	0.01	0	0	1;
	463	0.0	0.0	1.00	205.6170	102.8085	74.0221	0.9	0.85	1000	-1000	1000	0.1	0.01	0	0	1;
	1583	0.0	0.0	1.00	201.2955	100.6478	72.4664	0.9	0.85	1000	-1000	1000	0.1	0.01	0	0	1;
	484	0.0	0.0	1.00	200.5620	100.2810	72.2023	0.9	0.85	1000	-1000	1000	0.1	0.01	0	0	1;
	1379	0.0	0.0	1.00	200.4330	100.2165	72.1559	0.9	0.85	1000	-1000	1000	0.1	0.01	0	0	1;
	1520	0.0	0.0	1.00	198.0840	99.0420	71.3102	0.9	0.85	1000	-1000	1000	0.1	0.01	0	0	1;
	1605	0.0	0.0	1.00	195.2880	97.6440	70.3037	0.9	0.85	1000	-1000	1000	0.1	0.01	0	0	1;
	1606	0.0	0.0	1.00	195.2880	97.6440	70.3037	0.9	0.85	1000	-1000	1000	0.1	0.01	0	0	1;
	1608	0.0	0.0	1.00	193.0350	96.5175	69.4926	0.9	0.85	1000	-1000	1000	0.1	0.01	0	0	1;
	2291	0.0	0.0	1.00	188.0625	94.0312	67.7025	0.9	0.85	1000	-1000	1000	0.1	0.01	0	0	1;
	502	0.0	0.0	1.00	183.3120	91.6560	65.9923	0.9	0.85	1000	-1000	1000	0.1	0.01	0	0	1;
	1604	0.0	0.0	1.00	182.5890	91.2945	65.7320	0.9	0.85	1000	-1000	1000	0.1	0.01	0	0	1;
	2306	0.0	0.0	1.00	182.5890	91.2945	65.7320	0.9	0.85	1000	-1000	1000	0.1	0.01	0	0	1;
	9	0.0	0.0	1.00	181.8720	90.9360	65.4739	0.9	0.85	1000	-1000	1000	0.1	0.01	0	0	1;
	1579	0.0	0.0	1.00	181.0680	90.5340	65.1845	0.9	0.85	1000	-1000	1000	0.1	0.01	0	0	1;
	1529	0.0	0.0	1.00	180.6975	90.3487	65.0511	0.9	0.85	1000	-1000	1000	0.1	0.01	0	0	1;
	1555	0.0	0.0	1.00	180.5850	90.2925	65.0106	0.9	0.85	1000	-1000	1000	0.1	0.01	0	0	1;
	1233	0.0	0.0	1.00	176.3010	88.1505	63.4684	0.9	0.85	1000	-1000	1000	0.1	0.01	0	0	1;
	1613	0.0	0.0	1.00	173.3100	86.6550	62.3916	0.9	0.85	1000	-1000	1000	0.1	0.01	0	0	1;
	383	0.0	0.0	1.00	173.0625	86.5312	62.3025	0.9	0.85	1000	-1000	1000	0.1	0.01	0	0	1;
	447	0.0	0.0	1.00	173.0625	86.5312	62.3025	0.9	0.85	1000	-1000	1000	0.1	0.01	0	0	1;
	1586	0.0	0.0	1.00	173.0625	86.5312	62.3025	0.9	0.85	1000	-1000	1000	0.1	0.01	0	0	1;
	1602	0.0	0.0	1.00	172.0020	86.0010	61.9207	0.9	0.85	1000	-1000	1000	0.1	0.01	0	0	1;
	493	0.0	0.0	1.00	170.5065	85.2533	61.3823	0.9	0.85	1000	-1000	1000	0.1	0.01	0	0	1;
	2292	0.0	0.0	1.00	167.6220	83.8110	60.3439	0.9	0.85	1000	-1000	1000	0.1	0.01	0	0	1;
	1645	0.0	0.0	1.00	167.2620	83.6310	60.2143	0.9	0.85	1000	-1000	1000	0.1	0.01	0	0	1;
	1580	0.0	0.0	1.00	165.9945	82.9972	59.7580	0.9	0.85	1000	-1000	1000	0.1	0.01	0	0	1;
	889	0.0	0.0	1.00	162.8835	81.4417	58.6381	0.9	0.85	1000	-1000	1000	0.1	0.01	0	0	1;
	1577	0.0	0.0	1.00	156.8385	78.4193	56.4619	0.9	0.85	1000	-1000	1000	0.1	0.01	0	0	1;
	1495	0.0	0.0	1.00	156.0465	78.0233	56.1767	0.9	0.85	1000	-1000	1000	0.1	0.01	0	0	1;
	499	0.0	0.0	1.00	154.9725	77.4862	55.7901	0.9	0.85	1000	-1000	1000	0.1	0.01	0	0	1;
	753	0.0	0.0	1.00	148.1475	74.0738	53.3331	0.9	0.85	1000	-1000	1000	0.1	0.01	0	0	1;
	1599	0.0	0.0	1.00	143.4735	71.7368	51.6505	0.9	0.85	1000	-1000	1000	0.1	0.01	0	0	1;
	750	0.0	0.0	1.00	142.1550	71.0775	51.1758	0.9	0.85	1000	-1000	1000	0.1	0.01	0	0	1;
	2297	0.0	0.0	1.00	140.5230	70.2615	50.5883	0.9	0.85	1000	-1000	1000	0.1	0.01	0	0	1;
	988	0.0	0.0	1.00	139.7835	69.8918	50.3221	0.9	0.85	1000	-1000	1000	0.1	0.01	0	0	1;
	391	0.0	0.0	1.00	139.6260	69.8130	50.2654	0.9	0.85	1000	-1000	1000	0.1	0.01	0	0	1;
	1427	0.0	0.0	1.00	139.4040	69.7020	50.1854	0.9	0.85	1000	-1000	1000	0.1	0.01	0	0	1;
	490	0.0	0.0	1.00	138.2550	69.1275	49.7718	0.9	0.85	1000	-1000	1000	0.1	0.01	0	0	1;
	491	0.0	0.0	1.00	138.2550	69.1275	49.7718	0.9	0.85	1000	-1000	1000	0.1	0.01	0	0	1;
	919	0.0	0.0	1.00	137.2815	68.6407	49.4213	0.9	0.85	1000	-1000	1000	0.1	0.01	0	0	1;
	934	0.0	0.0	1.00	134.4090	67.2045	48.3872	0.9	0.85	1000	-1000	1000	0.1	0.01	0	0	1;
	1363	0.0	0.0	1.00	131.4045	65.7022	47.3056	0.9	0.85	1000	-1000	1000	0.1	0.01	0	0	1;
	156	0.0	0.0	1.00	127.0710	63.5355	45.7456	0.9	0.85	1000	-1000	1000	0.1	0.01	0	0	1;
	280	0.0	0.0	1.00	127.0710	63.5355	45.7456	0.9	0.85	1000	-1000	1000	0.1	0.01	0	0	1;
	764	0.0	0.0	1.00	123.3630	61.6815	44.4107	0.9	0.85	1000	-1000	1000	0.1	0.01	0	0	1;
	1374	0.0	0.0	1.00	123.3630	61.6815	44.4107	0.9	0.85	1000	-1000	1000	0.1	0.01	0	0	1;
	389	0.0	0.0	1.00	122.4570	61.2285	44.0845	0.9	0.85	1000	-1000	1000	0.1	0.01	0	0	1;
	390	0.0	0.0	1.00	122.4570	61.2285	44.0845	0.9	0.85	1000	-1000	1000	0.1	0.01	0	0	1;
	1610	0.0	0.0	1.00	122.4570	61.2285	44.0845	0.9	0.85	1000	-1000	1000	0.1	0.01	0	0	1;
	1611	0.0	0.0	1.00	122.4570	61.2285	44.0845	0.9	0.85	1000	-1000	1000	0.1	0.01	0	0	1;
	506	0.0	0.0	1.00	121.1175	60.5588	43.6023	0.9	0.85	1000	-1000	1000	0.1	0.01	0	0	1;
	2296	0.0	0.0	1.00	117.7605	58.8803	42.3938	0.9	0.85	1000	-1000	1000	0.1	0.01	0	0	1;
	1552	0.0	0.0	1.00	115.4550	57.7275	41.5638	0.9	0.85	1000	-1000	1000	0.1	0.01	0	0	1;
	1690	0.0	0.0	1.00	115.4460	57.7230	41.5606	0.9	0.85	1000	-1000	1000	0.1	0.01	0	0	1;
	751	0.0	0.0	1.00	114.9495	57.4748	41.3818	0.9	0.85	1000	-1000	1000	0.1	0.01	0	0	1;
	446	0.0	0.0	1.00	112.8000	56.4000	40.6080	0.9	0.85	1000	-1000	1000	0.1	0.01	0	0	1;
	1582	0.0	0.0	1.00	112.8000	56.4000	40.6080	0.9	0.85	1000	-1000	1000	0.1	0.01	0	0	1;
	172	0.0	0.0	1.00	108.4185	54.2092	39.0307	0.9	0.85	1000	-1000	1000	0.1	0.01	0	0	1;
	296	0.0	0.0	1.00	108.4185	54.2092	39.0307	0.9	0.85	1000	-1000	1000	0.1	0.01	0	0	1;
	2295	0.0	0.0	1.00	107.7285	53.8642	38.7823	0.9	0.85	1000	-1000	1000	0.1	0.01	0	0	1;
	1575	0.0	0.0	1.00	103.0110	51.5055	37.0840	0.9	0.85	1000	-1000	1000	0.1	0.01	0	0	1;
	2293	0.0	0.0	1.00	103.0020	51.5010	37.0807	0.9	0.85	1000	-1000	1000	0.1	0.01	0	0	1;
	2294	0.0	0.0	1.00	103.0020	51.5010	37.0807	0.9	0.85	1000	-1000	1000	0.1	0.01	0	0	1;
	956	0.0	0.0	1.00	102.7395	51.3697	36.9862	0.9	0.85	1000	-1000	1000	0.1	0.01	0	0	1;
	1300	0.0	0.0	1.00	102.4680	51.2340	36.8885	0.9	0.85	1000	-1000	1000	0.1	0.01	0	0	1;
	653	0.0	0.0	1.00	97.5240	48.7620	35.1086	0.9	0.85	1000	-1000	1000	0.1	0.01	0	0	1;
	1589	0.0	0.0	1.00	93.0990	46.5495	33.5156	0.9	0.85	1000	-1000	1000	0.1	0.01	0	0	1;
	1378	0.0	0.0	1.00	89.9790	44.9895	32.3924	0.9	0.85	1000	-1000	1000	0.1	0.01	0	0	1;
	1573	0.0	0.0	1.00	88.6275	44.3137	31.9059	0.9	0.85	1000	-1000	1000	0.1	0.01	0	0	1;
	1767	0.0	0.0	1.00	86.5485	43.2742	31.1575	0.9	0.85	1000	-1000	1000	0.1	0.01	0	0	1;
	1359	0.0	0.0	1.00	85.8300	42.9150	30.8988	0.9	0.85	1000	-1000	1000	0.1	0.01	0	0	1;
	1397	0.0	0.0	1.00	85.4580	42.7290	30.7649	0.9	0.85	1000	-1000	1000	0.1	0.01	0	0	1;
	487	0.0	0.0	1.00	83.8275	41.9138	30.1779	0.9	0.85	1000	-1000	1000	0.1	0.01	0	0	1;
	1755	0.0	0.0	1.00	82.3815	41.1908	29.6573	0.9	0.85	1000	-1000	1000	0.1	0.01	0	0	1;
	386	0.0	0.0	1.00	81.1230	40.5615	29.2043	0.9	0.85	1000	-1000	1000	0.1	0.01	0	0	1;
	1596	0.0	0.0	1.00	81.1230	40.5615	29.2043	0.9	0.85	1000	-1000	1000	0.1	0.01	0	0	1;
	222	0.0	0.0	1.00	80.5080	40.2540	28.9829	0.9	0.85	1000	-1000	1000	0.1	0.01	0	0	1;
	1574	0.0	0.0	1.00	80.3670	40.1835	28.9321	0.9	0.85	1000	-1000	1000	0.1	0.01	0	0	1;
	500	0.0	0.0	1.00	79.7340	39.8670	28.7042	0.9	0.85	1000	-1000	1000	0.1	0.01	0	0	1;
	501	0.0	0.0	1.00	79.7340	39.8670	28.7042	0.9	0.85	1000	-1000	1000	0.1	0.01	0	0	1;
	1114	0.0	0.0	1.00	78.4515	39.2258	28.2425	0.9	0.85	1000	-1000	1000	0.1	0.01	0	0	1;
	359	0.0	0.0	1.00	77.2605	38.6302	27.8138	0.9	0.85	1000	-1000	1000	0.1	0.01	0	0	1;
	1477	0.0	0.0	1.00	77.2605	38.6302	27.8138	0.9	0.85	1000	-1000	1000	0.1	0.01	0	0	1;
	1756	0.0	0.0	1.00	75.6075	37.8038	27.2187	0.9	0.85	1000	-1000	1000	0.1	0.01	0	0	1;
	1759	0.0	0.0	1.00	75.3615	37.6808	27.1301	0.9	0.85	1000	-1000	1000	0.1	0.01	0	0	1;
	1762	0.0	0.0	1.00	74.2185	37.1093	26.7187	0.9	0.85	1000	-1000	1000	0.1	0.01	0	0	1;
	1621	0.0	0.0	1.00	73.0500	36.5250	26.2980	0.9	0.85	1000	-1000	1000	0.1	0.01	0	0	1;
	1752	0.0	0.0	1.00	71.9340	35.9670	25.8962	0.9	0.85	1000	-1000	1000	0.1	0.01	0	0	1;
	942	0.0	0.0	1.00	71.6580	35.8290	25.7969	0.9	0.85	1000	-1000	1000	0.1	0.01	0	0	1;
	286	0.0	0.0	1.00	71.4135	35.7067	25.7089	0.9	0.85	1000	-1000	1000	0.1	0.01	0	0	1;
	1646	0.0	0.0	1.00	70.8525	35.4262	25.5069	0.9	0.85	1000	-1000	1000	0.1	0.01	0	0	1;
	1244	0.0	0.0	1.00	69.4845	34.7422	25.0144	0.9	0.85	1000	-1000	1000	0.1	0.01	0	0	1;
	1774	0.0	0.0	1.00	67.6020	33.8010	24.3367	0.9	0.85	1000	-1000	1000	0.1	0.01	0	0	1;
	937	0.0	0.0	1.00	67.3560	33.6780	24.2482	0.9	0.85	1000	-1000	1000	0.1	0.01	0	0	1;
	151	0.0	0.0	1.00	66.9870	33.4935	24.1153	0.9	0.85	1000	-1000	1000	0.1	0.01	0	0	1;
	275	0.0	0.0	1.00	66.9870	33.4935	24.1153	0.9	0.85	1000	-1000	1000	0.1	0.01	0	0	1;
	1761	0.0	0.0	1.00	66.0495	33.0247	23.7778	0.9	0.85	1000	-1000	1000	0.1	0.01	0	0	1;
	1286	0.0	0.0	1.00	66.0330	33.0165	23.7719	0.9	0.85	1000	-1000	1000	0.1	0.01	0	0	1;
	1388	0.0	0.0	1.00	65.7315	32.8657	23.6633	0.9	0.85	1000	-1000	1000	0.1	0.01	0	0	1;
	1790	0.0	0.0	1.00	65.4825	32.7413	23.5737	0.9	0.85	1000	-1000	1000	0.1	0.01	0	0	1;
	6	0.0	0.0	1.00	65.3595	32.6797	23.5294	0.9	0.85	1000	-1000	1000	0.1	0.01	0	0	1;
	581	0.0	0.0	1.00	64.9665	32.4832	23.3879	0.9	0.85	1000	-1000	1000	0.1	0.01	0	0	1;
	1247	0.0	0.0	1.00	64.6275	32.3137	23.2659	0.9	0.85	1000	-1000	1000	0.1	0.01	0	0	1;
	1166	0.0	0.0	1.00	64.0650	32.0325	23.0634	0.9	0.85	1000	-1000	1000	0.1	0.01	0	0	1;
	1789	0.0	0.0	1.00	63.8460	31.9230	22.9846	0.9	0.85	1000	-1000	1000	0.1	0.01	0	0	1;
	696	0.0	0.0	1.00	63.2880	31.6440	22.7837	0.9	0.85	1000	-1000	1000	0.1	0.01	0	0	1;
	1743	0.0	0.0	1.00	63.1725	31.5862	22.7421	0.9	0.85	1000	-1000	1000	0.1	0.01	0	0	1;
	2182	0.0	0.0	1.00	62.3010	31.1505	22.4284	0.9	0.85	1000	-1000	1000	0.1	0.01	0	0	1;
	1753	0.0	0.0	1.00	60.5835	30.2918	21.8101	0.9	0.85	1000	-1000	1000	0.1	0.01	0	0	1;
	1771	0.0	0.0	1.00	60.5835	30.2918	21.8101	0.9	0.85	1000	-1000	1000	0.1	0.01	0	0	1;
	1795	0.0	0.0	1.00	60.0075	30.0038	21.6027	0.9	0.85	1000	-1000	1000	0.1	0.01	0	0	1;
	1170	0.0	0.0	1.00	59.1780	29.5890	21.3041	0.9	0.85	1000	-1000	1000	0.1	0.01	0	0	1;
	1332	0.0	0.0	1.00	59.0790	29.5395	21.2684	0.9	0.85	1000	-1000	1000	0.1	0.01	0	0	1;
	1775	0.0	0.0	1.00	58.7835	29.3918	21.1621	0.9	0.85	1000	-1000	1000	0.1	0.01	0	0	1;
	1369	0.0	0.0	1.00	58.6065	29.3032	21.0983	0.9	0.85	1000	-1000	1000	0.1	0.01	0	0	1;
	1392	0.0	0.0	1.00	58.2450	29.1225	20.9682	0.9	0.85	1000	-1000	1000	0.1	0.01	0	0	1;
	886	0.0	0.0	1.00	57.6735	28.8367	20.7625	0.9	0.85	1000	-1000	1000	0.1	0.01	0	0	1;
	903	0.0	0.0	1.00	57.2040	28.6020	20.5934	0.9	0.85	1000	-1000	1000	0.1	0.01	0	0	1;
	1760	0.0	0.0	1.00	56.4990	28.2495	20.3396	0.9	0.85	1000	-1000	1000	0.1	0.01	0	0	1;
	1370	0.0	0.0	1.00	55.9410	27.9705	20.1388	0.9	0.85	1000	-1000	1000	0.1	0.01	0	0	1;
	1746	0.0	0.0	1.00	55.9320	27.9660	20.1355	0.9	0.85	1000	-1000	1000	0.1	0.01	0	0	1;
	690	0.0	0.0	1.00	54.6015	27.3008	19.6565	0.9	0.85	1000	-1000	1000	0.1	0.01	0	0	1;
	1844	0.0	0.0	1.00	54.5100	27.2550	19.6236	0.9	0.85	1000	-1000	1000	0.1	0.01	0	0	1;
	1593	0.0	0.0	1.00	53.3265	26.6633	19.1975	0.9	0.85	1000	-1000	1000	0.1	0.01	0	0	1;
	672	0.0	0.0	1.00	53.1870	26.5935	19.1473	0.9	0.85	1000	-1000	1000	0.1	0.01	0	0	1;
	1757	0.0	0.0	1.00	53.1540	26.5770	19.1354	0.9	0.85	1000	-1000	1000	0.1	0.01	0	0	1;
	1776	0.0	0.0	1.00	53.0715	26.5358	19.1057	0.9	0.85	1000	-1000	1000	0.1	0.01	0	0	1;
	235	0.0	0.0	1.00	53.0625	26.5312	19.1025	0.9	0.85	1000	-1000	1000	0.1	0.01	0	0	1;
	1770	0.0	0.0	1.00	52.6605	26.3302	18.9578	0.9	0.85	1000	-1000	1000	0.1	0.01	0	0	1;
	1112	0.0	0.0	1.00	51.8805	25.9403	18.6770	0.9	0.85	1000	-1000	1000	0.1	0.01	0	0	1;
	670	0.0	0.0	1.00	51.5835	25.7918	18.5701	0.9	0.85	1000	-1000	1000	0.1	0.01	0	0	1;
	271	0.0	0.0	1.00	51.2625	25.6312	18.4545	0.9	0.85	1000	-1000	1000	0.1	0.01	0	0	1;
	861	0.0	0.0	1.00	50.4000	25.2000	18.1440	0.9	0.85	1000	-1000	1000	0.1	0.01	0	0	1;
	1749	0.0	0.0	1.00	50.3760	25.1880	18.1354	0.9	0.85	1000	-1000	1000	0.1	0.01	0	0	1;
	254	0.0	0.0	1.00	50.2905	25.1453	18.1046	0.9	0.85	1000	-1000	1000	0.1	0.01	0	0	1;
	583	0.0	0.0	1.00	49.8990	24.9495	17.9636	0.9	0.85	1000	-1000	1000	0.1	0.01	0	0	1;
	1258	0.0	0.0	1.00	49.8240	24.9120	17.9366	0.9	0.85	1000	-1000	1000	0.1	0.01	0	0	1;
	1366	0.0	0.0	1.00	49.3155	24.6578	17.7536	0.9	0.85	1000	-1000	1000	0.1	0.01	0	0	1;
	1751	0.0	0.0	1.00	49.0680	24.5340	17.6645	0.9	0.85	1000	-1000	1000	0.1	0.01	0	0	1;
	2096	0.0	0.0	1.00	48.8220	24.4110	17.5759	0.9	0.85	1000	-1000	1000	0.1	0.01	0	0	1;
	1766	0.0	0.0	1.00	48.2550	24.1275	17.3718	0.9	0.85	1000	-1000	1000	0.1	0.01	0	0	1;
	1013	0.0	0.0	1.00	47.9865	23.9932	17.2751	0.9	0.85	1000	-1000	1000	0.1	0.01	0	0	1;
	238	0.0	0.0	1.00	46.8495	23.4247	16.8658	0.9	0.85	1000	-1000	1000	0.1	0.01	0	0	1;
	1137	0.0	0.0	1.00	46.7820	23.3910	16.8415	0.9	0.85	1000	-1000	1000	0.1	0.01	0	0	1;
...
];

%% branch data
%	fbus	tbus	r	x	b	rateA	rateB	rateC	ratio	angle	status	angmin	angmax
mpc.branch = [
	1	 2	 2e-05	 0.00021	 0.0	 876.0	 1051.2	 1576.8	 0.0	 0.0	 1	 -30.0	 30.0;
	1	 10	 0.00593	 0.04093	 0.07215	 341.0	 409.2	 613.8	 0.0	 0.0	 1	 -30.0	 30.0;
	2	 507	 0.0001	 0.01	 0.0	 83.7	 100.44	 150.66	 0.0	 0.0	 1	 -30.0	 30.0;
	3	 4	 2e-05	 0.00021	 0.0	 876.0	 1051.2	 1576.8	 0.0	 0.0	 1	 -30.0	 30.0;
	3	 8	 0.00777	 0.04128	 0.06391	 197.0	 236.4	 354.6	 0.0	 0.0	 1	 -30.0	 30.0;
	4	 1027	 0.0001	 0.01	 0.0	 198.78	 238.54	 357.81	 0.0	 0.0	 1	 -30.0	 30.0;
	5	 6	 2e-05	 0.00021	 0.0	 876.0	 1051.2	 1576.8	 0.0	 0.0	 1	 -30.0	 30.0;
	5	 9	 0.00488	 0.03362	 0.05961	 341.0	 409.2	 613.8	 0.0	 0.0	 1	 -30.0	 30.0;
	6	 217	 0.0001	 0.01	 0.0	 445.51	 534.61	 801.91	 0.0	 0.0	 1	 -30.0	 30.0;
	7	 8	 2e-05	 0.00021	 0.0	 876.0	 1051.2	 1576.8	 0.0	 0.0	 1	 -30.0	 30.0;
	7	 10	 0.00455	 0.03157	 0.05531	 231.0	 277.2	 415.8	 0.0	 0.0	 1	 -30.0	 30.0;
	9	 10	 2e-05	 0.00021	 0.0	 876.0	 1051.2	 1576.8	 0.0	 0.0	 1	 -30.0	 30.0;
	9	 2095	 0.0001	 0.01	 0.0	 140.51	 168.61	 252.91	 0.0	 0.0	 1	 -30.0	 30.0;
	11	 23	 0.03868	 0.10116	 0.0108	 87.61	 105.13	 157.7	 0.0	 0.0	 1	 -30.0	 30.0;
	11	 26	 0.00719	 0.02248	 0.00246	 50.0	 60.0	 90.0	 0.0	 0.0	 1	 -30.0	 30.0;
	11	 43	 0.01636	 0.04132	 0.0045	 50.0	 60.0	 90.0	 0.0	 0.0	 1	 -30.0	 30.0;
	12	 14	 0.00752	 0.02207	 0.00251	 80.22	 96.26	 144.4	 0.0	 0.0	 1	 -30.0	 30.0;
	12	 25	 0.00719	 0.02256	 0.00247	 50.0	 60.0	 90.0	 0.0	 0.0	 1	 -30.0	 30.0;
	13	 59	 0.02256	 0.04314	 0.004	 50.0	 60.0	 90.0	 0.0	 0.0	 1	 -30.0	 30.0;
...